<?xml version="1.0"?>

<routes> <!-- The opening tag -->

   <!-- Vehicle types -->
   <vType id="passenger" length="5.0" width="2.0" maxSpeed="70.0" accel="2.6" decel="4.5" sigma="0.5"/>

   <!-- Routes + associated vehicles & flows -->
   <route id="trip-0" color="Magenta" edges="-41910185#4 241660955#12 241660955#15 241660955#16 241660955#19 241660955#22 241660955#23 241660955#27 130165209#1 130165208#0 130165208#1 37331979 28523862#0 28198821#0 28198821#5 28198821#6 32038056#0 27431130 60966951 149583694#0 908924988#0 32324543#0 -541566703#2 -32064261 -32064260#8 -32064260#3 -219098056 219098057#0 206080341#0 206080341#3 -37347656 27404213#0 118041104#0 26704778#1 26704778#8 115106778#0 115106778#2 115106778#3 25102283#0 25102283#1 25102283#4 25102283#5"/>
   <vehicle id="vehicle-0" type="passenger" color="Yellow" depart="0.0" route="trip-0"/>
   <vehicle id="vehicle-2908" type="passenger" color="Yellow" depart="30.100000381469727" route="trip-0"/>

   <route id="trip-1" color="Magenta" edges="69366482 238511108#0 238511108#1 -238511108#1 -238511108#0 -69366482 69366483 8225102 51718611#0 51718611#1 -165515970#1 -165515970#0 -8225101 -154755102#3 -154755102#1 -154755102#0 -930736465 -930736464 -835792564 -930736468 -930736467 -186463490 -55940134#2 -167324659#2 -144935692#2 -144935692#1 -144935692#0 -541566701 -28523803#2 -32324543#2 -908924988#2 -149583694#2 -60966951 -27431130 -32038056#6 32324544#0 4045315#0 4045315#1 -258538642 -37191908#1 -863400417#0 4146762 4146760#0"/>
   <vehicle id="vehicle-1" type="passenger" color="Yellow" depart="0.01" route="trip-1"/>
   <vehicle id="vehicle-2909" type="passenger" color="Yellow" depart="30.11" route="trip-1"/>

   <route id="trip-2" color="Magenta" edges="-30081449#0 30078887 30081449#1 44037603#1 115844479#0 301750520 250959563 115849681#0 250959560 47892504#0 63530469 288162959 63566383 202654192#0 154755109#1 219188460#0 219188460#2 219188460#4 219188460#5 219188460#6 315921078#0 315921078#1 154755110#0 86415848 175589819#0 175589819#1 175589819#2 154333001#1 169453888#0 145345137#0 1065802292 667410647 150039007#0 150039007#1 150039007#2 667410644#0 9823971#0 9823971#1 9823971#2 9823971#3 857811041#0 51081171#0 51081171#1 51081171#2 8225162"/>
   <vehicle id="vehicle-2" type="passenger" color="Yellow" depart="0.02" route="trip-2"/>
   <vehicle id="vehicle-2910" type="passenger" color="Yellow" depart="30.12" route="trip-2"/>

   <route id="trip-3" color="Magenta" edges="372202212 -154874104 -176385764#1 -176385764#0 -154874107#2 -131959462#1 -391820861 -31901074 -33971538#1 -24592809 -372313445#1 -306387100 -33805058#1 24231208#0 206149607#0 51348105#0 51348105#1 950274727#0 135788128#1 33814452#0 33814452#1 33814452#2 33814452#4 33814452#5 349603488#0 349603488#1 4391050#0 4391050#2 349603490#0 620340717#0 -620340716 -620340715 -154743411#2 -620340714#2 -180723491#1 -180723489#2 -180723490 -620340712#1 -28889303#0 -620340711#2 31691107 185767958#1-AddedOnRampEdge 185767958#1 36454807#0 313981599#0 313981598#0 2829323#0 1072961179#0 32856811#0 32856811#3 542512889#0 4071778#0 115106779#0"/>
   <vehicle id="vehicle-3" type="passenger" color="Yellow" depart="0.03" route="trip-3"/>
   <vehicle id="vehicle-2911" type="passenger" color="Yellow" depart="30.13" route="trip-3"/>

   <route id="trip-4" color="Magenta" edges="-218895701 -218895699 -218930183#3 32020965 219018762#2 219018761#0 206080341#0 206080341#3 -37347656 27404213#0"/>
   <vehicle id="vehicle-4" type="passenger" color="Yellow" depart="0.04" route="trip-4"/>
   <vehicle id="vehicle-2912" type="passenger" color="Yellow" depart="30.14" route="trip-4"/>

   <route id="trip-5" color="Magenta" edges="-41581217#2 -41581217#1 -8196681#2 -8196681#1 -37637984 8195774#0 25101965#0 25101965#2 667410669#0 150034730#0 667410671#0 8196629#0 8196629#2 8196629#3 8196629#4 8196629#5 8225118#0 667410643#0 667410643#1 8225144#0 8225144#1 8225144#2 238511181 8225140#1 8225140#2"/>
   <vehicle id="vehicle-5" type="passenger" color="Yellow" depart="0.05" route="trip-5"/>
   <vehicle id="vehicle-2913" type="passenger" color="Yellow" depart="30.15" route="trip-5"/>

   <route id="trip-6" color="Magenta" edges="25101965#0 25101965#2 667410669#0 150034730#0 38574426#0 38574426#2 38574426#3 94097290#0 115106778#2 154755116#0 154755116#2 667410678#0 51081171#0 51081171#1 51081171#2 8225162 376717641#0 376717641#1 26784646#1"/>
   <vehicle id="vehicle-6" type="passenger" color="Yellow" depart="0.06" route="trip-6"/>
   <vehicle id="vehicle-2914" type="passenger" color="Yellow" depart="30.16" route="trip-6"/>

   <route id="trip-7" color="Magenta" edges="8076097#0 8076097#3 23694447 130752274#0 24592789#0 -154874104 -176385764#1 -176385764#0 -154874107#2 -131959462#1 -391820861 -31901074 -33971538#1 -24592809 -372313445#1 -306387100 -33805058#1 24231208#0 206149607#0 51348105#0 51348105#1 950274727#0 159281728#0 252773097 623090133#2 203486082"/>
   <vehicle id="vehicle-7" type="passenger" color="Yellow" depart="0.07" route="trip-7"/>
   <vehicle id="vehicle-2915" type="passenger" color="Yellow" depart="30.17" route="trip-7"/>

   <route id="trip-8" color="Magenta" edges="42999417#0 42999417#3 42999417#6 28841605#0 -457420988 4045161#0 4045161#1 383178036#0 383178036#1 383178034 150594021#0 150594021#3 4045164#0 4045164#5 115106778#0 115106778#2 115106778#3 26784170#0 26784170#3 667410641#0 154502579#0 667410645 667410646#0 667410646#1 4534554#0 4534554#1 369767417 23015817 22598789"/>
   <vehicle id="vehicle-8" type="passenger" color="Yellow" depart="0.08" route="trip-8"/>
   <vehicle id="vehicle-2916" type="passenger" color="Yellow" depart="30.18" route="trip-8"/>

   <route id="trip-9" color="Magenta" edges="53265906#2 -53265906#3 -53265906#0 -32011635#4 206080341#0 206080341#3 -37347656 27404213#0 118041104#0 26704778#1 26704778#8 115106778#0 115106778#2 115106778#3 26784170#0 25150041#0 25150041#1 25150041#2 10212092#0 -20185105 24693845#0 24693834#0 24693834#1 23395143 -543531545#3 -543531545#2 543524593 925248670#0 543524596#0 22598768#0 24664558 23393212#0 23393212#1 23393212#2 23393212#3 23393212#4 22598771#0 22598771#1 51827455#3"/>
   <vehicle id="vehicle-9" type="passenger" color="Yellow" depart="0.09" route="trip-9"/>
   <vehicle id="vehicle-2917" type="passenger" color="Yellow" depart="30.19" route="trip-9"/>

   <route id="trip-10" color="Magenta" edges="32903236#1 31951782#0 31951782#1 636113045 23014984 22949994#0 22949994#1 52303559#0 52303559#1 52303559#2 32029471 -39764938#1 154755110#0 86415848 175589819#0 175589819#1 175589819#2 154333001#1 169453888#0 145345137#0 1065802292 667410647 150039007#0 150039007#1 150039007#2 667410644#0 9823971#0 9823971#1 9823971#2 9823971#3 857811040 34896249#1 26784646#1 386265906#0 31694310 -26811074#3 -26811074#2"/>
   <vehicle id="vehicle-10" type="passenger" color="Yellow" depart="0.1" route="trip-10"/>
   <vehicle id="vehicle-2918" type="passenger" color="Yellow" depart="30.2" route="trip-10"/>

   <route id="trip-11" color="Magenta" edges="480375808 1070283593 23393212#0 23393212#1 23393212#2 24594310#0 24594310#1 51827455#1 23016541#0 23016541#1 34998404#3 543531546#0 543531545#0 543531545#3 34999321#0 34999321#1 34999321#2 20185105 20187845#4 35029564#0 123355479#0 123355479#1 123355479#3 154502563 37637984 -173282740 150031197#6 150031197#8 8196620#0 8196620#1 37390741#0 37390741#3 32021100#0 32021100#1 32021100#3 218930183#0 218930181 218895701 800616215#0 475663109#0 -149583694#2 -60966951 -27431130 -32038056#6 32324544#0 4045315#0 4045315#1 -258538642 -37191908#1 863400417#1 863400417#2 863400417#5 863400417#6"/>
   <vehicle id="vehicle-11" type="passenger" color="Yellow" depart="0.11" route="trip-11"/>
   <vehicle id="vehicle-2919" type="passenger" color="Yellow" depart="30.21" route="trip-11"/>

   <route id="trip-12" color="Magenta" edges="-37331983#2 23401189 37390741#0 37390741#3 32021100#0 32021100#1 32021100#3 32020965 219018762#2 -219018762#2"/>
   <vehicle id="vehicle-12" type="passenger" color="Yellow" depart="0.12" route="trip-12"/>
   <vehicle id="vehicle-2920" type="passenger" color="Yellow" depart="30.22" route="trip-12"/>

   <route id="trip-13" color="Magenta" edges="-23691831#0 23691831#0 23691831#1 322860621#0 322860621#1 303244424 23568269#0 23568269#2 146789538#0 146789538#1 145035674 23568275#0 37276375 367049196#0 10318490#0 136413965#0 667410648 169453890#0 402179132 37873574 175589820 315921077#0 315921077#1 154755110#0 86415848 175589819#0 175589819#1 175589819#2 154333001#1"/>
   <vehicle id="vehicle-13" type="passenger" color="Yellow" depart="0.13" route="trip-13"/>
   <vehicle id="vehicle-2921" type="passenger" color="Yellow" depart="30.23" route="trip-13"/>

   <route id="trip-14" color="Magenta" edges="24231766 48654842 51348099 401880206 313982939 623090131 252773096#0 135788128#1 33814452#0 33814452#1 33814452#2 33814452#4 33814452#5 349603488#0 349603488#1 4391050#0 4391050#2 349603490#0 620340717#0 -620340716 -620340715 -154743411#2 -620340714#2 -180723491#1 -180723489#2 -180723490 -620340712#1 -28889303#0 -620340711#2 -620340709#2 -620340705 -147549213 -37705430#2 -24564005 -677243061 677243062 -947918726#2 -947918726#0 947918726#0 947918726#2"/>
   <vehicle id="vehicle-14" type="passenger" color="Yellow" depart="0.14" route="trip-14"/>
   <vehicle id="vehicle-2922" type="passenger" color="Yellow" depart="30.24" route="trip-14"/>

   <route id="trip-15" color="Magenta" edges="86415860#1 88680005#1 203971499#0 203971501#0 10318488#0 10318488#2 4400322#0 39606301 189054412 78419224#1 401880207 1065789417 5667170#0 203486081 48654842 51348099 401880206 313982939 623090131 252773096#0 135788128#1 33814452#0 33814452#1 33814452#2 33814452#4 33814452#5 349603488#0 349603488#1 4391050#0 4391050#2 349603490#0 620340717#0 -620340716 -620340715 -154743411#2 -620340714#2 -180723491#1 -180723489#2 -180723490 -620340712#1 -28889303#0 -620340711#2 -620340709#2 -620340705"/>
   <vehicle id="vehicle-15" type="passenger" color="Yellow" depart="0.15" route="trip-15"/>
   <vehicle id="vehicle-2923" type="passenger" color="Yellow" depart="30.25" route="trip-15"/>

   <route id="trip-16" color="Magenta" edges="-28198797#1 28198797#1 28374726#0 28523862#0 28198821#0 28198821#5 28198821#6 32038056#0 27431130 60966951 149583694#0 908924988#0 32324543#0 28523803#0 541566701 144935692#0 144935692#1 144935692#2 167324659#0 55940134#0 186463490 930736467 930736468 835792564 930736464 930736465 154755102#0 154755102#1 154755102#2 -8096211#2 150031207#8 23493261#0 28542995#0 303244432#0 303244432#1 734784830#0 109063043 23493260#0 23493260#4 23493260#5 1065802294 303244426 768603506 4400319 48587087 48587086#0 48587086#1 1075393377 100132117 30743982 44037603#0 44037603#1 32233474#0 142518656#1 23914009#0 23914009#1 23914009#2 24037280 82548195#0 373038379 154755092#0 23493807#0 1063103289 4532200#0 4532200#1 39888573#0 -39888573#1"/>
   <vehicle id="vehicle-16" type="passenger" color="Yellow" depart="0.16" route="trip-16"/>
   <vehicle id="vehicle-2924" type="passenger" color="Yellow" depart="30.26" route="trip-16"/>

   <route id="trip-17" color="Magenta" edges="-4145593#2 -4145593#0 4145593#0 4145593#2 241678513#0 888173077 4145594#0 4145594#2 41910185#8 513372262 28753431 -64487932#12 -64487932#8 -64487932#7 -64487932#6 -64487932#3 -64487932#0 28198797#1 28374726#0 28523862#0 28198821#0 28198821#5 28198821#6 32038056#0 27431130 60966951 149583694#0 908924988#0 32324543#0 -32324543#2"/>
   <vehicle id="vehicle-17" type="passenger" color="Yellow" depart="0.17" route="trip-17"/>
   <vehicle id="vehicle-2925" type="passenger" color="Yellow" depart="30.27" route="trip-17"/>

   <route id="trip-18" color="Magenta" edges="26704778#8 115106778#0 115106778#2 154755116#0 154755116#2 667410678#0 51081171#0 51081171#1 51081171#2 906649715 751168040#0 751168040#1 115106777#0 115106777#2 4045160#0 4045160#2 4045160#3 42999417#0 42999417#3 42999417#6 32021100#0 32021100#1 32021100#3 218930183#0 -218930183#3 -219018760#1 -219098062#1 -32037433 -27431134 -8096208#1 27431133#0 524764427#0 27290865#0 524696738 188676296#0 4145955#0"/>
   <vehicle id="vehicle-18" type="passenger" color="Yellow" depart="0.18" route="trip-18"/>
   <vehicle id="vehicle-2926" type="passenger" color="Yellow" depart="30.28" route="trip-18"/>

   <route id="trip-19" color="Magenta" edges="-4999332#7 4999332#7 4999332#8 41910184#0 41910184#1 241660955#19 241660955#22 241660955#23 130160207#0 130160207#3 31864813#9 4146755#0 4146756#0 37191915#0 37191915#1 37191915#2"/>
   <vehicle id="vehicle-19" type="passenger" color="Yellow" depart="0.19" route="trip-19"/>
   <vehicle id="vehicle-2927" type="passenger" color="Yellow" depart="30.29" route="trip-19"/>

   <route id="trip-20" color="Magenta" edges="272288777#0 272288776#0 36590984#0 36590984#1 36590984#4 36590984#5 1057766650 32857154 25606746#0 25606746#2 322456245 322456250#0 150031245#0 47426157 135593540#0 399060413#0 399060413#1 947308251#0 467758206#0 406217856#0 1072955734#0 1072955734#1 28542886#0 28542886#3 166222937#0 389193083#1 150031230 542512892#0 542512892#1 150031207#0 150031207#3 150031207#5 8096211#0"/>
   <vehicle id="vehicle-20" type="passenger" color="Yellow" depart="0.2" route="trip-20"/>
   <vehicle id="vehicle-2928" type="passenger" color="Yellow" depart="30.3" route="trip-20"/>

   <route id="trip-21" color="Magenta" edges="166603924#0 166603924#5 609569104#0 4004111#0 4004111#2 51857078#0 51857078#3 160312590#0 160312590#1 160312590#2 322456246#0 322456246#1 322456248#0 322456245 322456250#0 150031245#0 47426157 135593540#0 399060413#0 399060413#1 947308251#0 467758206#0 406217856#0 1072955734#0 1072955734#1 28542886#0 28542886#3 166222937#0 389193083#1 150031230 542512892#0 542512892#1 150031207#0 150031207#3 150031207#5 150031207#8 23493261#0 28542995#0 303244432#0 303244432#1 734784830#0 109063043 23493260#0 23493260#4 23493260#5 1065802294 303244426 768603507 37276375 367049196#0 10318490#0 136413965#0 667410648 169453890#0 145345146#0 169453895 169453894 22949651 164158186 543524596#4 480054079"/>
   <vehicle id="vehicle-21" type="passenger" color="Yellow" depart="0.21" route="trip-21"/>
   <vehicle id="vehicle-2929" type="passenger" color="Yellow" depart="30.31" route="trip-21"/>

   <route id="trip-22" color="Magenta" edges="118041104#0 26704778#1 26704778#8 115106778#0 115106778#2 115106778#3 26784170#0 26784170#3 667410641#0 154502579#0 667410645 667410646#0 667410646#1 27115018#0 198171539#0 198171539#2 169465734#1 169465735#1 501456678 169453887#0 4400324#0 169453889#0-AddedOnRampEdge 169453889#0 203971501#0 10318488#0 10318488#2 4400322#0 39606301 189054412 78419224#1 401880207 1065789417 5667170#0 9831835#0 24233181#0 24233181#1"/>
   <vehicle id="vehicle-22" type="passenger" color="Yellow" depart="0.22" route="trip-22"/>
   <vehicle id="vehicle-2930" type="passenger" color="Yellow" depart="30.32" route="trip-22"/>

   <route id="trip-23" color="Magenta" edges="7976572#1 901827384 204177817 7976570 40236578#0 206149607#0 51348105#0 51348105#1 950274727#0 135788128#1 33814452#0 33814452#1 33814452#2 33814452#4 33814452#5 349603488#0 349603488#1 4391050#0 4391050#2 349603490#0 620340717#0 -620340716 -620340715 -154743411#2 -620340714#2 -180723491#1 -180723489#2 -180723490 -620340712#1 -28889303#0 -620340711#2 31691107 185767958#1-AddedOnRampEdge 185767958#1 36454807#0 313981599#0 313981598#0 2829323#0 4401673#5 4401673#7 4401673#8 28542886#3 166222937#0 389193083#1 150031230"/>
   <vehicle id="vehicle-23" type="passenger" color="Yellow" depart="0.23" route="trip-23"/>
   <vehicle id="vehicle-2931" type="passenger" color="Yellow" depart="30.33" route="trip-23"/>

   <route id="trip-24" color="Magenta" edges="218895701 800616215#0 475663109#0 908924988#0 32324543#0 28523803#0 541566701 144935692#0 144935692#1 144935692#2 166234884 166222937#0 389193083#1 150031230 542512892#0 542512892#1 129833341#0 154755117#0 23800191#0 23800191#1 23800191#2 234546135 23800141 23800192 186646384#0 186646384#4 186646384#6 180723491#0 620340714#0 154743411#0 620340713 620340716 501460458#0 110967368#0 4400197#0 4400198 1020500866#1"/>
   <vehicle id="vehicle-24" type="passenger" color="Yellow" depart="0.24" route="trip-24"/>
   <vehicle id="vehicle-2932" type="passenger" color="Yellow" depart="30.34" route="trip-24"/>

   <route id="trip-25" color="Magenta" edges="130165207#3 130165208#0 130165208#1 37331979 28523862#0 28198821#0 28198821#5 28198821#6 32038056#0 27431130 60966951 149583694#0 908924988#0 32324543#0 -541566703#2 -32064261 -32064260#8 -32064260#3 -219098056 219098057#0 206080341#0 206080341#3 -37347656 27404213#0 118041104#0 26704778#1 26704778#8 115106778#0 115106778#2 115106778#3 26784170#0 26784170#3 667410641#0 154502579#0 667410645 667410646#0 667410646#1 4534554#0 4534554#1 369767417 23015817 22598789 37744760"/>
   <vehicle id="vehicle-25" type="passenger" color="Yellow" depart="0.25" route="trip-25"/>
   <vehicle id="vehicle-2933" type="passenger" color="Yellow" depart="30.35" route="trip-25"/>

   <route id="trip-26" color="Magenta" edges="-26811074#1 -26811074#0 -154755095#2 -154755095#0 -51113317 198147972 154755108 -55940134#2 -167324659#2 -144935692#2 -144935692#1 -144935692#0 -541566701 -28523803#2 -32324543#2 -908924988#2 -149583694#2 -60966951 -27431130 -32038056#6 32324544#0 4045315#0 4045315#1 -258538642 -37191908#1 -130147329#5 -130147329#4 130147329#3"/>
   <vehicle id="vehicle-26" type="passenger" color="Yellow" depart="0.26" route="trip-26"/>
   <vehicle id="vehicle-2934" type="passenger" color="Yellow" depart="30.36" route="trip-26"/>

   <route id="trip-27" color="Magenta" edges="4401680 150031240#0 4401681#0 4401681#1 -218895699 -218930183#3 -32021100#6 -32021100#2 -32021100#0 -37390741#3 -37390741#2 8196618#0 8196618#1 917044797#1 917044797#2 150031197#1 150031197#2 150031197#3 150031197#4 173282740 8196681#0"/>
   <vehicle id="vehicle-27" type="passenger" color="Yellow" depart="0.27" route="trip-27"/>
   <vehicle id="vehicle-2935" type="passenger" color="Yellow" depart="30.37" route="trip-27"/>

   <route id="trip-28" color="Magenta" edges="53212166#1 28542995#0 303244432#0 8225148 33511920 85470315 85470309#0 85470309#1 85470309#2 85470309#3 85470309#4 85470309#5 -8225144#0 -667410643#1 -667410643#0 -8225118#2 9823971#0 9823971#1 9823971#2 9823971#3 857811041#0 51081171#0 51081171#1 51081171#2 906649715 751168040#0 751168040#1 115106777#0 115106777#2 4045160#0 4045160#2 4045160#3 42999417#0 42999417#3 42999417#6 28841605#0 32635135#0 28554623 693306826#0 693306826#1 699782373 32635133 340443768#0"/>
   <vehicle id="vehicle-28" type="passenger" color="Yellow" depart="0.28" route="trip-28"/>
   <vehicle id="vehicle-2936" type="passenger" color="Yellow" depart="30.38" route="trip-28"/>

   <route id="trip-29" color="Magenta" edges="150031236 4401678 218930181 218895701 800616215#0 475663109#0 908924988#0 32324543#0 28523803#0 541566701 144935692#0 144935692#1 144935692#2 166234884 166222937#0 389193083#1 150031230 542512892#0 542512892#1 129833341#0 154755117#0 23800191#0 23800191#1 23800191#2 234546135 23800141 23800192 186646384#0 186646384#4 186646384#6 180723491#0 620340714#0 154743411#0 620340713"/>
   <vehicle id="vehicle-29" type="passenger" color="Yellow" depart="0.29" route="trip-29"/>
   <vehicle id="vehicle-2937" type="passenger" color="Yellow" depart="30.39" route="trip-29"/>

   <route id="trip-30" color="Magenta" edges="147144449 25071938 617194816 154755085#0 4400311 145033134#1 199239574#1"/>
   <vehicle id="vehicle-30" type="passenger" color="Yellow" depart="0.3" route="trip-30"/>
   <vehicle id="vehicle-2938" type="passenger" color="Yellow" depart="30.4" route="trip-30"/>

   <route id="trip-31" color="Magenta" edges="-121935993#4 -121935993#3 -121935993#0 121935993#0 121935993#3 121935993#4 88679040 203971499#0 136413965#0 667410648 145345141#0 1065802292 667410647 150039007#0 150039007#1 150039007#2 667410644#0 9823971#0 9823971#1 9823971#2 9823971#3 857811041#0 51081171#0 51081171#1 51081171#2 906649715 751168040#0 751168040#1 5667174#0 5667174#2 37347656 219018758#0 32011636#0 51857159 219098056 32064260#0 32064260#5 32064261 541566703#0 -32324543#2 -908924988#2 -149583694#2 -60966951 -27431130 -32038056#6 32324544#0 4045315#0 4146742#0"/>
   <vehicle id="vehicle-31" type="passenger" color="Yellow" depart="0.31" route="trip-31"/>
   <vehicle id="vehicle-2939" type="passenger" color="Yellow" depart="30.41" route="trip-31"/>

   <route id="trip-32" color="Magenta" edges="980116966 -154755073#3 -154755073#2 4401673#5 4401673#7 4401673#8 28542886#3 166222937#0 389193083#1 150031230 542512892#0 542512892#1 150031207#0 150031207#3 150031207#5 150031207#8 23493261#0 28542995#0 303244432#0 303244432#1 734784830#0 109063043 23493260#0 23493260#4 23493260#5 1065802294 303244426 768603507 37276375 367049196#0 10318490#0 203971501#0 727302499 4400318#0 4400318#2 -121935993#6 -121935993#5 121935993#5 121935993#6"/>
   <vehicle id="vehicle-32" type="passenger" color="Yellow" depart="0.32" route="trip-32"/>
   <vehicle id="vehicle-2940" type="passenger" color="Yellow" depart="30.42" route="trip-32"/>

   <route id="trip-33" color="Magenta" edges="25101965#0 25101965#2 667410669#0 123355479#0 123355479#1 123355479#3 154502563 37637984 -173282740 150031197#6 150031197#8 8196620#0 8196620#1 37390741#0 37390741#3 32021100#0 32021100#1 32021100#3 218930183#0 218930181 218895701 800616215#0 475663109#0 -149583694#2 -60966951 -27431130 -32038056#6 -28198821#8 -28198821#5 -28198821#4 130165205#0 130165205#2 28523856#0 32038441#0 -28198797#1 -31864813#10 -130160207#4 4045335#0"/>
   <vehicle id="vehicle-33" type="passenger" color="Yellow" depart="0.33" route="trip-33"/>
   <vehicle id="vehicle-2941" type="passenger" color="Yellow" depart="30.43" route="trip-33"/>

   <route id="trip-34" color="Magenta" edges="186463491#0 145474196#1 150031205#1 145474195#0 -167324659#2 167324659#0 55940134#0 186463490 930736467 930736468 835792564 930736464 930736465 154755102#0 154755102#1 154755102#2 26519352#0 8096212 948795440 165511531#0 8225109#0 8225109#3 23015531#0 23015531#2 69366482 238511108#0 238511108#1 -238511108#1 -238511108#0 -69366482"/>
   <vehicle id="vehicle-34" type="passenger" color="Yellow" depart="0.34" route="trip-34"/>
   <vehicle id="vehicle-2942" type="passenger" color="Yellow" depart="30.44" route="trip-34"/>

   <route id="trip-35" color="Magenta" edges="4400195#2 1020500542#1 1020500866#1 177147101#0 109560724 820405257 4391050#0 4391050#2 349603490#0 620340717#0 -620340716 -620340715 -154743411#2 -620340714#2 -180723491#1 -180723489#2 -180723490 -620340712#1 -28889303#0 -620340711#2 31691107 185767958#1-AddedOnRampEdge 185767958#1 36454807#0 313981599#0 313981598#0 150031205#1 145474195#0 4380937#0 541416569#0 150031262#0"/>
   <vehicle id="vehicle-35" type="passenger" color="Yellow" depart="0.35" route="trip-35"/>
   <vehicle id="vehicle-2943" type="passenger" color="Yellow" depart="30.45" route="trip-35"/>

   <route id="trip-36" color="Magenta" edges="23401189 37390741#0 37390741#3 32021100#0 32021100#1 32021100#3 218930183#0 218930181 218895701 800616215#0 475663109#0 908924988#0 32324543#0 28523803#0 541566701 144935692#0 144935692#1 144935692#2 166234884 166222937#0 389193083#1 150031230 542512892#0 542512892#1 129833341#0 154755117#0 23800191#0 23800191#1 23800191#2 234546135 23800141 23800192 186646384#0 186646384#4 186646384#6 180723491#0 620340714#0 154743411#0 620340713 620340716 501460458#0"/>
   <vehicle id="vehicle-36" type="passenger" color="Yellow" depart="0.36" route="trip-36"/>
   <vehicle id="vehicle-2944" type="passenger" color="Yellow" depart="30.46" route="trip-36"/>

   <route id="trip-37" color="Magenta" edges="23568396#2 10318490#0 203971501#0 727302499 4400318#0 4400318#2 4400318#3 48591635#0 23568429 48591634#0 48591634#1 50557487#0 50557487#1 188052918#1 154755085#0 154755085#1 83703647#1 83703647#2 83703647#3 83703647#4 83703645 23493040 64488045 917044790 122989592#0 542512895 326986553 23493176#0 154755112#0 154755112#3 154755096 -8225101 -154755102#3 -154755102#1 -154755102#0 -930736465 -930736464 -835792564 -930736468 -930736467 -186463490 -55940134#2 150031203#0 150031227"/>
   <vehicle id="vehicle-37" type="passenger" color="Yellow" depart="0.37" route="trip-37"/>
   <vehicle id="vehicle-2945" type="passenger" color="Yellow" depart="30.47" route="trip-37"/>

   <route id="trip-38" color="Magenta" edges="-205044667 53212167#0 154755115#1 147148321 23493179#0 50629722 129833340#0 129833341#0 917044794#0 129833347 218723887 2829323#0 4401673#5 4401673#7 4401673#8 612188894#1 612188894#3 -144935692#1 -144935692#0 -541566701 -28523803#2 -32324543#2 -908924988#2 -149583694#2 -60966951 -27431130 -32038056#6 -28198821#8 -28198821#5 -28198821#4 130165205#0 130165205#2 28523856#0 32038441#0 -28198797#1 64487932#0 64487932#1 64487932#4 64487932#7"/>
   <vehicle id="vehicle-38" type="passenger" color="Yellow" depart="0.38" route="trip-38"/>
   <vehicle id="vehicle-2946" type="passenger" color="Yellow" depart="30.48" route="trip-38"/>

   <route id="trip-39" color="Magenta" edges="23487158#1 23014984 22949994#0 22949994#1 52303559#0 52303559#1 52303559#2 32029471 -39764938#1 154755110#0 86415848 175589819#0 175589819#1 175589819#2 154333001#1 169453888#0 145345137#0 1065802292 667410647 150039007#0 150039007#1 150039007#2 667410644#0 9823971#0 9823971#1 9823971#2 9823971#3 857811041#0 51081171#0 51081171#1 51081171#2 906649715 751168040#0 751168040#1 115106777#0 115106777#2 67519125#0 36940236#2"/>
   <vehicle id="vehicle-39" type="passenger" color="Yellow" depart="0.39" route="trip-39"/>
   <vehicle id="vehicle-2947" type="passenger" color="Yellow" depart="30.49" route="trip-39"/>

   <route id="trip-40" color="Magenta" edges="1072961179#0 32856811#0 32856811#3 751868780#0 28542897#1 135556213 322456247 322456251#0 27404830#0 32857154 322456249#2 322456244#3 322456244#9"/>
   <vehicle id="vehicle-40" type="passenger" color="Yellow" depart="0.4" route="trip-40"/>
   <vehicle id="vehicle-2948" type="passenger" color="Yellow" depart="30.5" route="trip-40"/>

   <route id="trip-41" color="Magenta" edges="27431138#0 27431138#2 -457420988 4045161#0 4045161#1 383178036#0 383178036#1 383178034 150594021#0 150594021#3 4045164#0 4045164#5 115106778#0 115106778#2 154755116#0 154755116#2 667410678#0 51081171#0 51081171#1 51081171#2 8225162 376717641#0 376717641#1 26784646#1 386265906#0 37331980#0 37331980#5 219098055#0 186463493#0 150031203#0 150031227 150031230 542512892#0 542512892#1 129833341#0 154755117#0"/>
   <vehicle id="vehicle-41" type="passenger" color="Yellow" depart="0.41" route="trip-41"/>
   <vehicle id="vehicle-2949" type="passenger" color="Yellow" depart="30.51" route="trip-41"/>

   <route id="trip-42" color="Magenta" edges="8225128#0 8225128#1 985517967 8225129 51534019#0 8225127 8225124#0 8225124#1 8225124#2 -8225110#1 -8225110#0 85470309#4 85470309#5 -8225144#0 -667410643#1 -667410643#0 -8225118#2 154502579#0 667410645 667410646#0 667410646#1 27115018#0 198171539#0 198171539#2 169465734#1 169465735#1 501456678 169453887#0 4400324#0 169453889#0-AddedOnRampEdge 169453889#0 203971501#0 727302499 4400318#0 4400318#2 4400318#3 48591635#0 23568429 48591634#0 48591634#1 50557487#0 50557487#1 188052918#1 154755085#0 4400311 145033134#1 199239574#1"/>
   <vehicle id="vehicle-42" type="passenger" color="Yellow" depart="0.42" route="trip-42"/>
   <vehicle id="vehicle-2950" type="passenger" color="Yellow" depart="30.52" route="trip-42"/>

   <route id="trip-43" color="Magenta" edges="23014990 -23014990 154507079#1 568235965#0 32903236#0 32903236#1 31951782#0 31951782#1 636113045 23014984 22949994#0 22949994#1 52303559#0 52303559#1 52303559#2 32029471 -39764938#1 154755110#0 86415860#0 86415860#1 88680005#1 203971499#0 203971501#0 10318488#0 10318488#2 4400322#0 39606301 189054412 78419224#1 401880207 1065789417 5667170#0 203486081 48654842 51348099 401880206 313982939 623090131 252773096#0 135788128#1 33814452#0 33814452#1 33814452#2 33814452#4 33814452#5 349603488#0 349603488#1 4391050#0 4391050#2 349603490#0 620340717#0 -620340716 -620340715 -154743411#2 389119027"/>
   <vehicle id="vehicle-43" type="passenger" color="Yellow" depart="0.43" route="trip-43"/>
   <vehicle id="vehicle-2951" type="passenger" color="Yellow" depart="30.53" route="trip-43"/>

   <route id="trip-44" color="Magenta" edges="206080341#3 -37347656 37347656 219018758#0 32011636#0 51857159 219098056 32064260#0 32064260#5 32064261 541566703#0 541566702#0 28523795#0 4004115#0 36590986#1 751868780#0 -4907750#2 -4907750#0 4907749 -4907747#3"/>
   <vehicle id="vehicle-44" type="passenger" color="Yellow" depart="0.44" route="trip-44"/>
   <vehicle id="vehicle-2952" type="passenger" color="Yellow" depart="30.54" route="trip-44"/>

   <route id="trip-45" color="Magenta" edges="28523868#4 28523868#5 28523868#10 340337295#0 340337295#1 265984914#0 894292811 289753604 27115122#0 27115122#1 583283156#0 583283156#1 255094956#0 824267465 255094955#0 255094955#2 2936806#0 113160347#0 113160347#2 255104326#0 51681577#1 321451886 4895018#0 -629582672#1 -206782858#4 -206782858#3 -206782858#2 -218408988#1 4390895#0 -8759465#8 -8759465#5 -8759465#2 36590980#0 37705430#0 147549213 620340708 620340709#0 620340711#0 620340706#0 28889303#1 180723490 180723489#0 180723491#0 620340714#0 154743411#0 620340713 620340716 501460458#0 110967368#0 109539742#0 109539742#1 4391001#0 303245743 51348112#0 4400448 -378664820"/>
   <vehicle id="vehicle-45" type="passenger" color="Yellow" depart="0.45" route="trip-45"/>
   <vehicle id="vehicle-2953" type="passenger" color="Yellow" depart="30.55" route="trip-45"/>
