<?xml version="1.0" encoding="UTF-8"?>

<!-- generated on 2022-10-15 09:41:03 by Eclipse SUMO netconvert Version 1.14.1
<configuration xmlns:xsi="http://www.w3.org/2001/XMLSchema-instance" xsi:noNamespaceSchemaLocation="http://sumo.dlr.de/xsd/netconvertConfiguration.xsd">

    <input>
        <sumo-net-file value="colognev1600.net.xml"/>
    </input>

    <output>
        <plain-output-prefix value="colognev1600"/>
    </output>

    <processing>
        <geometry.min-radius.fix.railways value="false"/>
        <geometry.max-grade.fix value="false"/>
        <offset.disable-normalization value="true"/>
        <lefthand value="false"/>
    </processing>

    <junctions>
        <no-internal-links value="true"/>
        <no-turnarounds value="true"/>
        <junctions.corner-detail value="5"/>
        <junctions.limit-turn-speed value="5.5"/>
        <rectangular-lane-cut value="false"/>
    </junctions>

    <pedestrian>
        <walkingareas value="false"/>
    </pedestrian>

</configuration>
-->

<connections version="1.9" xmlns:xsi="http://www.w3.org/2001/XMLSchema-instance" xsi:noNamespaceSchemaLocation="http://sumo.dlr.de/xsd/connections_file.xsd">
    <connection from="-100261834#1" to="315154039#0" fromLane="0" toLane="0"/>
    <connection from="-100261834#1" to="315154042" fromLane="0" toLane="0"/>
    <connection from="-100261834#1" to="100261834#0" fromLane="0" toLane="0"/>

    <connection from="-1002809958" to="51348105#1" fromLane="0" toLane="0"/>
    <connection from="-1002809958" to="1002809958" fromLane="0" toLane="0"/>

    <connection from="-1008124634" to="1008124639" fromLane="0" toLane="0"/>
    <connection from="-1008124634" to="-947918726#0" fromLane="0" toLane="0"/>
    <connection from="-1008124634" to="947918726#2" fromLane="0" toLane="0"/>
    <connection from="-1008124634" to="1008124636" fromLane="0" toLane="0"/>

    <connection from="-1008124637" to="-947918726#0" fromLane="0" toLane="0"/>
    <connection from="-1008124637" to="947918726#2" fromLane="0" toLane="0"/>
    <connection from="-1008124637" to="1008124636" fromLane="0" toLane="0"/>
    <connection from="-1008124637" to="1008124639" fromLane="0" toLane="0"/>

    <connection from="-1008124641" to="-1008124644#0" fromLane="0" toLane="0"/>
    <connection from="-1008124641" to="1008124644#1" fromLane="0" toLane="0"/>
    <connection from="-1008124641" to="1008124641" fromLane="0" toLane="0"/>

    <connection from="-1008124644#0" to="151057637#5" fromLane="0" toLane="0"/>
    <connection from="-1008124644#0" to="-213185325#8" fromLane="0" toLane="0"/>
    <connection from="-1008124644#0" to="154743409#0" fromLane="0" toLane="0"/>
    <connection from="-1008124644#0" to="1008128660#0" fromLane="0" toLane="0"/>

    <connection from="-1008124644#1" to="1008124641" fromLane="0" toLane="0"/>
    <connection from="-1008124644#1" to="-1008124644#0" fromLane="0" toLane="0"/>
    <connection from="-1008124644#1" to="1008124644#1" fromLane="0" toLane="0"/>

    <connection from="-1008124644#2" to="-1008124644#1" fromLane="0" toLane="0"/>
    <connection from="-1008124644#2" to="-1008124637" fromLane="0" toLane="0"/>
    <connection from="-1008124644#2" to="1008124644#2" fromLane="0" toLane="0"/>

    <connection from="-1010641521#1" to="-154511600#0" fromLane="0" toLane="0"/>
    <connection from="-1010641521#1" to="154511600#1" fromLane="0" toLane="0"/>
    <connection from="-1010641521#1" to="23013529#0" fromLane="0" toLane="0"/>

    <connection from="-1016257783#2" to="-150031290#2" fromLane="0" toLane="0"/>
    <connection from="-1016257783#2" to="-150508167" fromLane="0" toLane="0"/>
    <connection from="-1016257783#2" to="150031290#3" fromLane="0" toLane="0"/>

    <connection from="-1016582154#0" to="-27383269#3" fromLane="0" toLane="0"/>
    <connection from="-1016582154#0" to="122194349#0" fromLane="0" toLane="0"/>
    <connection from="-1016582154#0" to="257512000#0" fromLane="0" toLane="0"/>

    <connection from="-1016582154#1" to="-1016582154#0" fromLane="0" toLane="0"/>
    <connection from="-1016582154#1" to="611985602#0" fromLane="0" toLane="0"/>
    <connection from="-1016582154#1" to="1016582154#1" fromLane="0" toLane="0"/>

    <connection from="-101742041" to="101742046#0" fromLane="0" toLane="0"/>
    <connection from="-101742041" to="102010404" fromLane="0" toLane="0"/>
    <connection from="-101742041" to="31584203" fromLane="0" toLane="0"/>

    <connection from="-101742046#0" to="102010404" fromLane="0" toLane="0"/>
    <connection from="-101742046#0" to="31584203" fromLane="0" toLane="0"/>
    <connection from="-101742046#0" to="101742046#0" fromLane="0" toLane="0"/>

    <connection from="-101742046#1" to="102010400" fromLane="0" toLane="0"/>
    <connection from="-101742046#1" to="-101742046#0" fromLane="0" toLane="0"/>
    <connection from="-101742046#1" to="101742046#1" fromLane="0" toLane="0"/>

    <connection from="-102003405" to="34961120#1" fromLane="0" toLane="0"/>
    <connection from="-102003405" to="-147715251#1" fromLane="0" toLane="0"/>
    <connection from="-102003405" to="31584499" fromLane="0" toLane="0"/>
    <connection from="-102003405" to="102003405" fromLane="0" toLane="0"/>

    <connection from="-102010401" to="-101742046#0" fromLane="0" toLane="0"/>
    <connection from="-102010401" to="101742046#1" fromLane="0" toLane="0"/>
    <connection from="-102010401" to="102010400" fromLane="0" toLane="0"/>

    <connection from="-102010402#0" to="-102010401" fromLane="0" toLane="0"/>
    <connection from="-102010402#0" to="-101742046#1" fromLane="0" toLane="0"/>
    <connection from="-102010402#0" to="101742046#2" fromLane="0" toLane="0"/>

    <connection from="-102010402#1" to="-102010402#0" fromLane="0" toLane="0"/>
    <connection from="-102010402#1" to="-55834888" fromLane="0" toLane="0"/>
    <connection from="-102010402#1" to="102010402#1" fromLane="0" toLane="0"/>

    <connection from="-102010404" to="31584203" fromLane="0" toLane="0"/>
    <connection from="-102010404" to="101742046#0" fromLane="0" toLane="0"/>
    <connection from="-102010404" to="102010404" fromLane="0" toLane="0"/>

    <connection from="-1020497837" to="-382219939#1" fromLane="0" toLane="0"/>
    <connection from="-1020497837" to="-382219939#1" fromLane="0" toLane="1"/>

    <connection from="-10212091#0" to="369767417" fromLane="0" toLane="0"/>
    <connection from="-10212091#0" to="10212091#0" fromLane="0" toLane="0"/>

    <connection from="-10212091#1" to="749966893" fromLane="0" toLane="0"/>
    <connection from="-10212091#1" to="-10212091#0" fromLane="0" toLane="0"/>

    <connection from="-10212091#2" to="25102191" fromLane="0" toLane="0"/>
    <connection from="-10212091#2" to="-10212091#1" fromLane="0" toLane="0"/>
    <connection from="-10212091#2" to="10212091#2" fromLane="0" toLane="0"/>

    <connection from="-10212091#3" to="-10212091#2" fromLane="0" toLane="0"/>
    <connection from="-10212091#3" to="23015813#0" fromLane="0" toLane="0"/>
    <connection from="-10212091#3" to="10212091#3" fromLane="0" toLane="0"/>

    <connection from="-10212384#1" to="10212384#0" fromLane="0" toLane="0"/>

    <connection from="-10212385#3" to="10212385#0" fromLane="0" toLane="0"/>

    <connection from="-1027492830#0" to="-497188419#0" fromLane="0" toLane="0"/>
    <connection from="-1027492830#0" to="497188419#1" fromLane="0" toLane="0"/>
    <connection from="-1027492830#0" to="1027492830#0" fromLane="0" toLane="0"/>

    <connection from="-1027492830#1" to="1028265871" fromLane="0" toLane="0"/>
    <connection from="-1027492830#1" to="-1027492830#0" fromLane="0" toLane="0"/>
    <connection from="-1027492830#1" to="1027492830#1" fromLane="0" toLane="0"/>

    <connection from="-1028265871" to="-1027492830#0" fromLane="0" toLane="0"/>
    <connection from="-1028265871" to="1027492830#1" fromLane="0" toLane="0"/>
    <connection from="-1028265871" to="1028265871" fromLane="0" toLane="0"/>

    <connection from="-1031640724" to="5015532#2" fromLane="0" toLane="0"/>
    <connection from="-1031640724" to="1031640724" fromLane="0" toLane="0"/>

    <connection from="-1034736568" to="503415497#3" fromLane="0" toLane="0"/>
    <connection from="-1034736568" to="1034736569" fromLane="0" toLane="0"/>

    <connection from="-1039460421" to="22873524#2" fromLane="0" toLane="0"/>
    <connection from="-1039460421" to="-22873524#1" fromLane="0" toLane="0"/>
    <connection from="-1039460421" to="136491282" fromLane="0" toLane="0"/>

    <connection from="-1040380418" to="1040380419" fromLane="0" toLane="0"/>
    <connection from="-1040380418" to="4882046#3" fromLane="0" toLane="0"/>
    <connection from="-1040380418" to="-4882046#1" fromLane="0" toLane="0"/>
    <connection from="-1040380418" to="1040380418" fromLane="0" toLane="0"/>

    <connection from="-1040380419" to="4882046#3" fromLane="0" toLane="0"/>
    <connection from="-1040380419" to="-4882046#1" fromLane="0" toLane="0"/>
    <connection from="-1040380419" to="1040380418" fromLane="0" toLane="0"/>
    <connection from="-1040380419" to="1040380419" fromLane="0" toLane="0"/>

    <connection from="-1040627970" to="-10212385#3" fromLane="0" toLane="0"/>
    <connection from="-1040627970" to="-399092214#0" fromLane="0" toLane="0"/>
    <connection from="-1040627970" to="399092214#1" fromLane="0" toLane="0"/>

    <connection from="-1041751791" to="-1041751793#0" fromLane="0" toLane="0"/>
    <connection from="-1041751791" to="1041751793#1" fromLane="0" toLane="0"/>
    <connection from="-1041751791" to="1041751792" fromLane="0" toLane="0"/>

    <connection from="-1041751793#0" to="-52114202" fromLane="0" toLane="0"/>
    <connection from="-1041751793#0" to="1041751793#0" fromLane="0" toLane="0"/>

    <connection from="-1042668178" to="4537870#0" fromLane="0" toLane="0"/>
    <connection from="-1042668178" to="329049398#0" fromLane="0" toLane="0"/>
    <connection from="-1042668178" to="1042668178" fromLane="0" toLane="0"/>

    <connection from="-1044303170" to="50061433" fromLane="0" toLane="0"/>
    <connection from="-1044303170" to="43554819" fromLane="0" toLane="0"/>

    <connection from="-1049201852" to="23387704#0" fromLane="0" toLane="0"/>
    <connection from="-1049201852" to="1049201852" fromLane="0" toLane="0"/>

    <connection from="-105425059" to="105425059" fromLane="0" toLane="0"/>

    <connection from="-105425068" to="-38967914#1" fromLane="0" toLane="0"/>
    <connection from="-105425068" to="38967914#2" fromLane="0" toLane="0"/>
    <connection from="-105425068" to="105425068" fromLane="0" toLane="0"/>

    <connection from="-1054278018" to="177480690#1" fromLane="0" toLane="0"/>
    <connection from="-1054278018" to="177479467" fromLane="0" toLane="0"/>

    <connection from="-1073630194" to="4391050#2" fromLane="0" toLane="0"/>
    <connection from="-1073630194" to="150189642" fromLane="0" toLane="0"/>

    <connection from="-1075858996#0" to="-863400418#5" fromLane="0" toLane="0"/>
    <connection from="-1075858996#0" to="863400418#6" fromLane="0" toLane="0"/>
    <connection from="-1075858996#0" to="1075858996#0" fromLane="0" toLane="0"/>

    <connection from="-1075858996#1" to="-1075858996#0" fromLane="0" toLane="0"/>
    <connection from="-1075858996#1" to="1089336211#0" fromLane="0" toLane="0"/>

    <connection from="-108372346" to="4400193#2" fromLane="0" toLane="0"/>
    <connection from="-108372346" to="-52114203#2" fromLane="0" toLane="0"/>
    <connection from="-108372346" to="-4400193#0" fromLane="0" toLane="0"/>
    <connection from="-108372346" to="108372346" fromLane="0" toLane="0"/>

    <connection from="-1086848625" to="-5015536#4" fromLane="0" toLane="0"/>
    <connection from="-1086848625" to="130165206#0" fromLane="0" toLane="0"/>
    <connection from="-1086848625" to="1086848625" fromLane="0" toLane="0"/>

    <connection from="-1089336211#0" to="1075858996#1" fromLane="0" toLane="0"/>
    <connection from="-1089336211#0" to="-1075858996#0" fromLane="0" toLane="0"/>
    <connection from="-1089336211#0" to="1089336211#0" fromLane="0" toLane="0"/>

    <connection from="-1089336211#1" to="-562237656" fromLane="0" toLane="0"/>
    <connection from="-1089336211#1" to="-1089336211#0" fromLane="0" toLane="0"/>
    <connection from="-1089336211#1" to="1089336211#1" fromLane="0" toLane="0"/>

    <connection from="-1089336212" to="4145953#2" fromLane="0" toLane="0"/>
    <connection from="-1089336212" to="1089336212" fromLane="0" toLane="0"/>

    <connection from="-1090327474" to="124894178#2" fromLane="0" toLane="0"/>
    <connection from="-1090327474" to="-124894178#1" fromLane="0" toLane="0"/>
    <connection from="-1090327474" to="1090327474" fromLane="0" toLane="0"/>

    <connection from="-1090331464" to="41581217#2" fromLane="0" toLane="0"/>
    <connection from="-1090331464" to="-41581217#1" fromLane="0" toLane="0"/>
    <connection from="-1090331464" to="1090331464" fromLane="0" toLane="0"/>

    <connection from="-1090331468" to="-41770576#1" fromLane="0" toLane="0"/>
    <connection from="-1090331468" to="41770576#2" fromLane="0" toLane="0"/>
    <connection from="-1090331468" to="1090331468" fromLane="0" toLane="0"/>

    <connection from="-1090333047" to="-32011876#0" fromLane="0" toLane="0"/>
    <connection from="-1090333047" to="32011876#1" fromLane="0" toLane="0"/>
    <connection from="-1090333047" to="1090333047" fromLane="0" toLane="0"/>

    <connection from="-1090333049" to="23393212#1" fromLane="0" toLane="0"/>
    <connection from="-1090333049" to="1090333049" fromLane="0" toLane="0"/>

    <connection from="-1090335174" to="46346429" fromLane="0" toLane="0"/>
    <connection from="-1090335174" to="20187845#2" fromLane="0" toLane="0"/>
    <connection from="-1090335174" to="1090335174" fromLane="0" toLane="0"/>

    <connection from="-1090345721#1" to="-26811074#0" fromLane="0" toLane="0"/>
    <connection from="-1090345721#1" to="26811074#1" fromLane="0" toLane="0"/>
    <connection from="-1090345721#1" to="1090345721#0" fromLane="0" toLane="0"/>

    <connection from="-1090345722#1" to="-26811074#1" fromLane="0" toLane="0"/>
    <connection from="-1090345722#1" to="26811074#2" fromLane="0" toLane="0"/>
    <connection from="-1090345722#1" to="1090345722#0" fromLane="0" toLane="0"/>

    <connection from="-1090345723#1" to="-26811074#2" fromLane="0" toLane="0"/>
    <connection from="-1090345723#1" to="26811074#3" fromLane="0" toLane="0"/>
    <connection from="-1090345723#1" to="1090345723#0" fromLane="0" toLane="0"/>

    <connection from="-1090345724" to="24900481#2" fromLane="0" toLane="0"/>
    <connection from="-1090345724" to="1090345724" fromLane="0" toLane="0"/>

    <connection from="-1090598832" to="129316657#1" fromLane="0" toLane="0"/>
    <connection from="-1090598832" to="1090598831" fromLane="0" toLane="0"/>

    <connection from="-1090603229" to="4400455#3" fromLane="0" toLane="0"/>
    <connection from="-1090603229" to="1090603229" fromLane="0" toLane="0"/>

    <connection from="-1090604891" to="349914645#1" fromLane="0" toLane="0"/>
    <connection from="-1090604891" to="1090604891" fromLane="0" toLane="0"/>

    <connection from="-109063044#1" to="8225102" fromLane="0" toLane="0"/>
    <connection from="-109063044#1" to="-85414282#1" fromLane="0" toLane="0"/>
    <connection from="-109063044#1" to="23567938" fromLane="0" toLane="0"/>

    <connection from="-1090865106" to="-5021133#9" fromLane="0" toLane="0"/>
    <connection from="-1090865106" to="5021133#10" fromLane="0" toLane="0"/>
    <connection from="-1090865106" to="1090865106" fromLane="0" toLane="0"/>

    <connection from="-1091932753" to="199239574#1" fromLane="0" toLane="0"/>
    <connection from="-1091932753" to="1091932753" fromLane="0" toLane="0"/>

    <connection from="-1091935018" to="1091935019#1" fromLane="0" toLane="0"/>
    <connection from="-1091935018" to="-1091935019#0" fromLane="0" toLane="0"/>
    <connection from="-1091935018" to="1091935018" fromLane="0" toLane="0"/>

    <connection from="-1091935019#0" to="-1091935020#0" fromLane="0" toLane="0"/>
    <connection from="-1091935019#0" to="1091935020#1" fromLane="0" toLane="0"/>
    <connection from="-1091935019#0" to="1091935019#0" fromLane="0" toLane="0"/>

    <connection from="-1091935019#1" to="-1091935019#0" fromLane="0" toLane="0"/>
    <connection from="-1091935019#1" to="1091935018" fromLane="0" toLane="0"/>
    <connection from="-1091935019#1" to="1091935019#1" fromLane="0" toLane="0"/>

    <connection from="-1091935020#0" to="-4400211#5" fromLane="0" toLane="0"/>
    <connection from="-1091935020#0" to="1091935020#0" fromLane="0" toLane="0"/>

    <connection from="-1091935020#1" to="1091935019#0" fromLane="0" toLane="0"/>
    <connection from="-1091935020#1" to="-1091935020#0" fromLane="0" toLane="0"/>
    <connection from="-1091935020#1" to="1091935020#1" fromLane="0" toLane="0"/>

    <connection from="-1092219970" to="4146763#2" fromLane="0" toLane="0"/>
    <connection from="-1092219970" to="1092219970" fromLane="0" toLane="0"/>

    <connection from="-1092219975" to="188676296#5" fromLane="0" toLane="0"/>
    <connection from="-1092219975" to="4145955#0" fromLane="0" toLane="0"/>
    <connection from="-1092219975" to="-188676296#2" fromLane="0" toLane="0"/>
    <connection from="-1092219975" to="128504566#0" fromLane="0" toLane="0"/>
    <connection from="-1092219975" to="1092219975" fromLane="0" toLane="0"/>

    <connection from="-1092219976" to="-188676296#11" fromLane="0" toLane="0"/>
    <connection from="-1092219976" to="188676296#12" fromLane="0" toLane="0"/>
    <connection from="-1092219976" to="1092219976" fromLane="0" toLane="0"/>

    <connection from="-1092220575" to="-38967914#3" fromLane="0" toLane="0"/>
    <connection from="-1092220575" to="38967914#4" fromLane="0" toLane="0"/>
    <connection from="-1092220575" to="1092220575" fromLane="0" toLane="0"/>

    <connection from="-1092431396" to="402324704#1" fromLane="0" toLane="0"/>
    <connection from="-1092431396" to="1092431396" fromLane="0" toLane="0"/>

    <connection from="-1092431397" to="907907766#1" fromLane="0" toLane="0"/>
    <connection from="-1092431397" to="-907907766#0" fromLane="0" toLane="0"/>
    <connection from="-1092431397" to="1092431397" fromLane="0" toLane="0"/>

    <connection from="-1092435501" to="1092435502#1" fromLane="0" toLane="0"/>
    <connection from="-1092435501" to="-1092435502#0" fromLane="0" toLane="0"/>
    <connection from="-1092435501" to="1092435501" fromLane="0" toLane="0"/>

    <connection from="-1092435502#0" to="-4882042#0" fromLane="0" toLane="0"/>
    <connection from="-1092435502#0" to="4882042#1" fromLane="0" toLane="0"/>
    <connection from="-1092435502#0" to="1092435502#0" fromLane="0" toLane="0"/>

    <connection from="-1092435502#1" to="-1092435502#0" fromLane="0" toLane="0"/>
    <connection from="-1092435502#1" to="1092435501" fromLane="0" toLane="0"/>
    <connection from="-1092435502#1" to="1092435502#1" fromLane="0" toLane="0"/>

    <connection from="-110927132#0" to="110927132#0" fromLane="0" toLane="0"/>

    <connection from="-110927132#1" to="-110927132#0" fromLane="0" toLane="0"/>
    <connection from="-110927132#1" to="-283054546#1" fromLane="0" toLane="0"/>
    <connection from="-110927132#1" to="110927132#1" fromLane="0" toLane="0"/>

    <connection from="-110927134" to="283054546#1" fromLane="0" toLane="0"/>
    <connection from="-110927134" to="-283054546#0" fromLane="0" toLane="0"/>
    <connection from="-110927134" to="110927134" fromLane="0" toLane="0"/>

    <connection from="-115644431#1" to="4119602#4" fromLane="0" toLane="0"/>
    <connection from="-115644431#1" to="115644431#0" fromLane="0" toLane="0"/>

    <connection from="-116604717#2" to="-782393244" fromLane="0" toLane="0"/>
    <connection from="-116604717#2" to="352289447" fromLane="0" toLane="0"/>
    <connection from="-116604717#2" to="352289445" fromLane="0" toLane="0"/>
    <connection from="-116604717#2" to="116604717#1" fromLane="0" toLane="0"/>

    <connection from="-119317767#1" to="119317767#0" fromLane="0" toLane="0"/>

    <connection from="-119555034#4" to="796263419" fromLane="0" toLane="0"/>
    <connection from="-119555034#4" to="5004995#8" fromLane="0" toLane="0"/>
    <connection from="-119555034#4" to="-5004995#7" fromLane="0" toLane="0"/>
    <connection from="-119555034#4" to="119555034#1" fromLane="0" toLane="0"/>

    <connection from="-120404648#0" to="863400418#4" fromLane="0" toLane="0"/>
    <connection from="-120404648#0" to="144623880" fromLane="0" toLane="0"/>
    <connection from="-120404648#0" to="-863400418#3" fromLane="0" toLane="0"/>
    <connection from="-120404648#0" to="120404648#0" fromLane="0" toLane="0"/>

    <connection from="-120404648#1" to="4145954#0" fromLane="0" toLane="0"/>
    <connection from="-120404648#1" to="-120404648#0" fromLane="0" toLane="0"/>
    <connection from="-120404648#1" to="120404648#1" fromLane="0" toLane="0"/>

    <connection from="-120404650" to="-120404648#1" fromLane="0" toLane="0"/>

    <connection from="-121094870" to="5015543#1" fromLane="0" toLane="0"/>
    <connection from="-121094870" to="121094870" fromLane="0" toLane="0"/>

    <connection from="-121935993#0" to="121935993#0" fromLane="0" toLane="0"/>

    <connection from="-121935993#3" to="121935995" fromLane="0" toLane="0"/>
    <connection from="-121935993#3" to="-121935993#0" fromLane="0" toLane="0"/>
    <connection from="-121935993#3" to="-194008800" fromLane="0" toLane="0"/>
    <connection from="-121935993#3" to="921340674" fromLane="0" toLane="0"/>

    <connection from="-121935993#4" to="121935996" fromLane="0" toLane="0"/>
    <connection from="-121935993#4" to="-121935993#3" fromLane="0" toLane="0"/>

    <connection from="-121935993#5" to="88679040" fromLane="0" toLane="0"/>
    <connection from="-121935993#5" to="-121935993#4" fromLane="0" toLane="0"/>
    <connection from="-121935993#5" to="121935993#5" fromLane="0" toLane="0"/>

    <connection from="-121935993#6" to="50544674" fromLane="0" toLane="0"/>
    <connection from="-121935993#6" to="-121935993#5" fromLane="0" toLane="0"/>

    <connection from="-121936006#0" to="121936006#0" fromLane="0" toLane="0"/>

    <connection from="-121936006#1" to="-121936006#0" fromLane="0" toLane="0"/>
    <connection from="-121936006#1" to="-984502252" fromLane="0" toLane="0"/>
    <connection from="-121936006#1" to="121936006#1" fromLane="0" toLane="0"/>

    <connection from="-122194344" to="-27312549#2" fromLane="0" toLane="0"/>
    <connection from="-122194344" to="27312549#3" fromLane="0" toLane="0"/>
    <connection from="-122194344" to="122194344" fromLane="0" toLane="0"/>

    <connection from="-122194349#0" to="257512000#0" fromLane="0" toLane="0"/>
    <connection from="-122194349#0" to="-27383269#3" fromLane="0" toLane="0"/>
    <connection from="-122194349#0" to="122194349#0" fromLane="0" toLane="0"/>

    <connection from="-122194349#1" to="-122194349#0" fromLane="0" toLane="0"/>
    <connection from="-122194349#1" to="762214823" fromLane="0" toLane="0"/>
    <connection from="-122194349#1" to="122194349#1" fromLane="0" toLane="0"/>

    <connection from="-122194350" to="-27312549#1" fromLane="0" toLane="0"/>
    <connection from="-122194350" to="27312549#2" fromLane="0" toLane="0"/>
    <connection from="-122194350" to="122194350" fromLane="0" toLane="0"/>

    <connection from="-122313834#0" to="497188420#0" fromLane="0" toLane="0"/>
    <connection from="-122313834#0" to="891328265" fromLane="0" toLane="0"/>
    <connection from="-122313834#0" to="891328262" fromLane="0" toLane="0"/>
    <connection from="-122313834#0" to="800951533#2" fromLane="0" toLane="0"/>

    <connection from="-122313834#1" to="-497188419#1" fromLane="0" toLane="0"/>
    <connection from="-122313834#1" to="-122313834#0" fromLane="0" toLane="0"/>

    <connection from="-122313834#2" to="-122313834#1" fromLane="0" toLane="0"/>
    <connection from="-122313834#2" to="60963772#0" fromLane="0" toLane="0"/>

    <connection from="-122313835#0" to="-188676296#12" fromLane="0" toLane="0"/>
    <connection from="-122313835#0" to="-122313834#2" fromLane="0" toLane="0"/>
    <connection from="-122313835#0" to="188676296#13" fromLane="0" toLane="0"/>
    <connection from="-122313835#0" to="122313835#0" fromLane="0" toLane="0"/>

    <connection from="-122313835#2" to="-122313835#0" fromLane="0" toLane="0"/>
    <connection from="-122313835#2" to="4137082" fromLane="0" toLane="0"/>
    <connection from="-122313835#2" to="122313835#1" fromLane="0" toLane="0"/>

    <connection from="-122313835#4" to="-319929498#7" fromLane="0" toLane="0"/>
    <connection from="-122313835#4" to="-122313835#2" fromLane="0" toLane="0"/>
    <connection from="-122313835#4" to="319929498#8" fromLane="0" toLane="0"/>
    <connection from="-122313835#4" to="122313835#3" fromLane="0" toLane="0"/>

    <connection from="-123354431" to="25102283#1" fromLane="0" toLane="0"/>
    <connection from="-123354431" to="97704528" fromLane="0" toLane="0"/>

    <connection from="-124177563#1" to="124177563#0" fromLane="0" toLane="0"/>

    <connection from="-124329997#1" to="23013269#1" fromLane="0" toLane="0"/>
    <connection from="-124329997#1" to="-23013269#0" fromLane="0" toLane="0"/>
    <connection from="-124329997#1" to="124329997#0" fromLane="0" toLane="0"/>

    <connection from="-124894178#1" to="124894178#0" fromLane="0" toLane="0"/>

    <connection from="-124895952#0" to="23016541#1" fromLane="0" toLane="0"/>
    <connection from="-124895952#0" to="124895952#0" fromLane="0" toLane="0"/>

    <connection from="-124895952#4" to="335406627" fromLane="0" toLane="0"/>
    <connection from="-124895952#4" to="-124895952#0" fromLane="0" toLane="0"/>
    <connection from="-124895952#4" to="-335406623" fromLane="0" toLane="0"/>
    <connection from="-124895952#4" to="335406618" fromLane="0" toLane="0"/>
    <connection from="-124895952#4" to="335406622" fromLane="0" toLane="0"/>
    <connection from="-124895952#4" to="124895952#4" fromLane="0" toLane="0"/>

    <connection from="-125388372#0" to="125388372#0" fromLane="0" toLane="0"/>

    <connection from="-125388372#1" to="-125388372#0" fromLane="0" toLane="0"/>
    <connection from="-125388372#1" to="-27383270" fromLane="0" toLane="0"/>
    <connection from="-125388372#1" to="125388372#1" fromLane="0" toLane="0"/>

    <connection from="-125618676#1" to="125618676#0" fromLane="0" toLane="0"/>

    <connection from="-128508148" to="-896349525" fromLane="0" toLane="0" keepClear="0"/>

    <connection from="-129863885#0" to="129861628#1" fromLane="0" toLane="0"/>
    <connection from="-129863885#0" to="129859419" fromLane="0" toLane="0"/>

    <connection from="-129863885#1" to="-129863885#2" fromLane="0" toLane="0"/>
    <connection from="-129863885#1" to="-129863885#0" fromLane="0" toLane="0"/>
    <connection from="-129863885#1" to="129863885#1" fromLane="0" toLane="0"/>

    <connection from="-129863885#2" to="-129863885#1" fromLane="0" toLane="0"/>

    <connection from="-130147328" to="902175298#2" fromLane="0" toLane="0"/>
    <connection from="-130147328" to="-902175298#1" fromLane="0" toLane="0"/>
    <connection from="-130147328" to="130147328" fromLane="0" toLane="0"/>

    <connection from="-130147329#0" to="-37191915#2" fromLane="0" toLane="0"/>
    <connection from="-130147329#0" to="37191915#3" fromLane="0" toLane="0"/>
    <connection from="-130147329#0" to="130147329#0" fromLane="0" toLane="0"/>

    <connection from="-130147329#1" to="-130147329#0" fromLane="0" toLane="0"/>
    <connection from="-130147329#1" to="815844359" fromLane="0" toLane="0"/>

    <connection from="-130147329#2" to="-130147329#1" fromLane="0" toLane="0"/>
    <connection from="-130147329#2" to="934494315" fromLane="0" toLane="0"/>

    <connection from="-130147329#4" to="130147382#0" fromLane="0" toLane="0"/>
    <connection from="-130147329#4" to="-130147329#2" fromLane="0" toLane="0"/>
    <connection from="-130147329#4" to="130147329#3" fromLane="0" toLane="0"/>

    <connection from="-130147329#5" to="-130147329#4" fromLane="0" toLane="0"/>
    <connection from="-130147329#5" to="351661907#0" fromLane="0" toLane="0"/>

    <connection from="-130147382#0" to="-130147329#2" fromLane="0" toLane="0"/>
    <connection from="-130147382#0" to="130147329#3" fromLane="0" toLane="0"/>
    <connection from="-130147382#0" to="130147382#0" fromLane="0" toLane="0"/>

    <connection from="-130147382#2" to="4146760#1" fromLane="0" toLane="0"/>
    <connection from="-130147382#2" to="-130147382#0" fromLane="0" toLane="0"/>
    <connection from="-130147382#2" to="4146759#1" fromLane="0" toLane="0"/>
    <connection from="-130147382#2" to="130147382#2" fromLane="0" toLane="0"/>

    <connection from="-130147382#3" to="-130147382#2" fromLane="0" toLane="0"/>
    <connection from="-130147382#3" to="-130147328" fromLane="0" toLane="0"/>
    <connection from="-130147382#3" to="130147382#3" fromLane="0" toLane="0"/>

    <connection from="-130147382#6" to="-37191914#0" fromLane="0" toLane="0"/>
    <connection from="-130147382#6" to="-130147382#3" fromLane="0" toLane="0"/>
    <connection from="-130147382#6" to="37191914#1" fromLane="0" toLane="0"/>
    <connection from="-130147382#6" to="130147382#4" fromLane="0" toLane="0"/>

    <connection from="-130160206#0" to="-4137092#4" fromLane="0" toLane="0"/>