<?xml version="1.0" encoding="UTF-8"?>

<!-- generated on 2022-10-07 23:30:59 by Eclipse SUMO netconvert Version 1.14.1
<configuration xmlns:xsi="http://www.w3.org/2001/XMLSchema-instance" xsi:noNamespaceSchemaLocation="http://sumo.dlr.de/xsd/netconvertConfiguration.xsd">

    <input>
        <sumo-net-file value="colognev1000.net.xml"/>
    </input>

    <output>
        <plain-output-prefix value="colognev1000"/>
    </output>

    <processing>
        <geometry.min-radius.fix.railways value="false"/>
        <geometry.max-grade.fix value="false"/>
        <offset.disable-normalization value="true"/>
        <lefthand value="false"/>
    </processing>

    <junctions>
        <no-internal-links value="true"/>
        <no-turnarounds value="true"/>
        <junctions.corner-detail value="5"/>
        <junctions.limit-turn-speed value="5.5"/>
        <rectangular-lane-cut value="false"/>
    </junctions>

    <pedestrian>
        <walkingareas value="false"/>
    </pedestrian>

</configuration>
-->

<tlLogics version="1.9" xmlns:xsi="http://www.w3.org/2001/XMLSchema-instance" xsi:noNamespaceSchemaLocation="http://sumo.dlr.de/xsd/tllogic_file.xsd">
    <tlLogic id="2123899423" type="static" programID="0" offset="0">
        <phase duration="80" state="GGG"/>
        <phase duration="5"  state="yyy"/>
        <phase duration="5"  state="rrr"/>
    </tlLogic>
    <tlLogic id="617180390" type="static" programID="0" offset="0">
        <phase duration="82" state="GGGG"/>
        <phase duration="3"  state="yyyy"/>
        <phase duration="5"  state="rrrr"/>
    </tlLogic>
    <tlLogic id="808403640" type="static" programID="0" offset="0">
        <phase duration="39" state="GGGGr"/>
        <phase duration="6"  state="yyyyr"/>
        <phase duration="39" state="rrrrG"/>
        <phase duration="6"  state="rrrry"/>
    </tlLogic>
    <tlLogic id="GS_10929961" type="static" programID="0" offset="0">
        <phase duration="33" state="rrrrGGggrrrrGGgg"/>
        <phase duration="3"  state="rrrryyggrrrryygg"/>
        <phase duration="6"  state="rrrrrrGGrrrrrrGG"/>
        <phase duration="3"  state="rrrrrryyrrrrrryy"/>
        <phase duration="33" state="GGggrrrrGGggrrrr"/>
        <phase duration="3"  state="yyggrrrryyggrrrr"/>
        <phase duration="6"  state="rrGGrrrrrrGGrrrr"/>
        <phase duration="3"  state="rryyrrrrrryyrrrr"/>
    </tlLogic>
    <tlLogic id="GS_1093874892" type="static" programID="0" offset="0">
        <phase duration="42" state="GGrrr"/>
        <phase duration="3"  state="yyrrr"/>
        <phase duration="42" state="rrGGG"/>
        <phase duration="3"  state="rryyy"/>
    </tlLogic>
    <tlLogic id="GS_1238715" type="static" programID="0" offset="0">
        <phase duration="42" state="GGGrr"/>
        <phase duration="3"  state="yyyrr"/>
        <phase duration="42" state="rrrGG"/>
        <phase duration="3"  state="rrryy"/>
    </tlLogic>
    <tlLogic id="GS_1238725" type="static" programID="0" offset="0">
        <phase duration="33" state="GGrrrrrrGGrr"/>
        <phase duration="6"  state="yyrrrrrryyrr"/>
        <phase duration="6"  state="rrGGrrrrrrGG"/>
        <phase duration="6"  state="rryyrrrrrryy"/>
        <phase duration="33" state="rrrrGGGgGrrr"/>
        <phase duration="6"  state="rrrryyyyyrrr"/>
    </tlLogic>
    <tlLogic id="GS_267834130" type="static" programID="0" offset="0">
        <phase duration="42" state="Gr"/>
        <phase duration="3"  state="yr"/>
        <phase duration="42" state="rG"/>
        <phase duration="3"  state="ry"/>
    </tlLogic>
    <tlLogic id="GS_32356643" type="static" programID="0" offset="0">
        <phase duration="42" state="GGrrr"/>
        <phase duration="3"  state="yyrrr"/>
        <phase duration="42" state="rrGGG"/>
        <phase duration="3"  state="rryyy"/>
    </tlLogic>
    <tlLogic id="GS_3264216357" type="static" programID="0" offset="0">
        <phase duration="42" state="GGrr"/>
        <phase duration="3"  state="yyrr"/>
        <phase duration="42" state="rrGG"/>
        <phase duration="3"  state="rryy"/>
    </tlLogic>
    <tlLogic id="GS_3264216359" type="static" programID="0" offset="0">
        <phase duration="42" state="GGggrrrrGGggrrrr"/>
        <phase duration="3"  state="yyyyrrrryyyyrrrr"/>
        <phase duration="42" state="rrrrGGggrrrrGGgg"/>
        <phase duration="3"  state="rrrryyyyrrrryyyy"/>
    </tlLogic>
    <tlLogic id="GS_33019120" type="static" programID="0" offset="0">
        <phase duration="42" state="rrrrGGggrrrrGGgg"/>
        <phase duration="3"  state="rrrryyyyrrrryyyy"/>
        <phase duration="42" state="GGggrrrrGGggrrrr"/>
        <phase duration="3"  state="yyyyrrrryyyyrrrr"/>
    </tlLogic>
    <tlLogic id="GS_356267937" type="static" programID="0" offset="0">
        <phase duration="40" state="GGGG"/>
        <phase duration="5"  state="yyyy"/>
        <phase duration="40" state="GGGG"/>
        <phase duration="5"  state="yyyy"/>
    </tlLogic>
    <tlLogic id="GS_357134" type="static" programID="0" offset="0">
        <phase duration="42" state="GG"/>
        <phase duration="3"  state="yy"/>
        <phase duration="42" state="GG"/>
        <phase duration="3"  state="yy"/>
    </tlLogic>
    <tlLogic id="GS_357152" type="static" programID="0" offset="0">
        <phase duration="42" state="GGggrrrrGGggrrrr"/>
        <phase duration="3"  state="yyyyrrrryyyyrrrr"/>
        <phase duration="42" state="rrrrGGggrrrrGGgg"/>
        <phase duration="3"  state="rrrryyyyrrrryyyy"/>
    </tlLogic>
    <tlLogic id="GS_359089" type="static" programID="0" offset="0">
        <phase duration="42" state="GggGGgrrr"/>
        <phase duration="3"  state="yyyyyyrrr"/>
        <phase duration="42" state="rrrrrrGGG"/>
        <phase duration="3"  state="rrrrrryyy"/>
    </tlLogic>
    <tlLogic id="GS_359416602" type="static" programID="0" offset="0">
        <phase duration="38" state="GGGggrrrrGGGgg"/>
        <phase duration="3"  state="yyyggrrrryyygg"/>
        <phase duration="6"  state="rrrGGrrrrrrrGG"/>
        <phase duration="3"  state="rrryyrrrrrrryy"/>
        <phase duration="37" state="rrrrrGGGgGrrrr"/>
        <phase duration="3"  state="rrrrryyyyyrrrr"/>
    </tlLogic>
    <tlLogic id="GS_359584" type="static" programID="0" offset="0">
        <phase duration="42" state="GGGgrrr"/>
        <phase duration="3"  state="yyyyrrr"/>
        <phase duration="42" state="rrrrGGG"/>
        <phase duration="3"  state="rrrryyy"/>
    </tlLogic>
    <tlLogic id="GS_359606" type="static" programID="0" offset="0">
        <phase duration="24" state="rrrrrrrrGGgrrrGGgg"/>
        <phase duration="3"  state="rrrrrrrryyyrrryygg"/>
        <phase duration="6"  state="rrrrrrrrrrrrrrGGGG"/>
        <phase duration="3"  state="rrrrrrrrrrrrrryyyy"/>
        <phase duration="24" state="GGggrrrrrrrGGgrrrr"/>
        <phase duration="3"  state="yyyyrrrrrrryyyrrrr"/>
        <phase duration="24" state="rrrrGGGGrrrrrrrrrr"/>
        <phase duration="3"  state="rrrryyyyrrrrrrrrrr"/>
    </tlLogic>
    <tlLogic id="GS_359611" type="static" programID="0" offset="0">
        <phase duration="33" state="rrrrrGGGGggrrrrrGGGggg"/>
        <phase duration="3"  state="rrrrryyyyggrrrrryyyggg"/>
        <phase duration="6"  state="rrrrrrrrrGGrrrrrrrrGGG"/>
        <phase duration="3"  state="rrrrrrrrryyrrrrrrrryyy"/>
        <phase duration="33" state="GGGggrrrrrrGGgggrrrrrr"/>
        <phase duration="3"  state="yyyggrrrrrryygggrrrrrr"/>
        <phase duration="6"  state="rrrGGrrrrrrrrGGGrrrrrr"/>
        <phase duration="3"  state="rrryyrrrrrrrryyyrrrrrr"/>
    </tlLogic>
    <tlLogic id="GS_359624" type="static" programID="0" offset="0">
        <phase duration="42" state="GGgrrrGGggrrrr"/>
        <phase duration="3"  state="yyyrrryyyyrrrr"/>
        <phase duration="42" state="rrrGGggrrrGGgg"/>
        <phase duration="3"  state="rrryyyyrrryyyy"/>
    </tlLogic>
    <tlLogic id="GS_359660" type="static" programID="0" offset="0">
        <phase duration="42" state="GGGGGGrr"/>
        <phase duration="3"  state="yyyyyyrr"/>
        <phase duration="42" state="rrrrrrGG"/>
        <phase duration="3"  state="rrrrrryy"/>
    </tlLogic>
    <tlLogic id="GS_359691" type="static" programID="0" offset="0">
        <phase duration="42" state="GGggrrrrGGggrr"/>
        <phase duration="3"  state="yyyyrrrryyyyrr"/>
        <phase duration="42" state="rrrrGGggrrrrGG"/>
        <phase duration="3"  state="rrrryyyyrrrryy"/>
    </tlLogic>
    <tlLogic id="GS_359891" type="static" programID="0" offset="0">
        <phase duration="42" state="GgGGG"/>
        <phase duration="3"  state="yyyyy"/>
        <phase duration="42" state="GrGGG"/>
        <phase duration="3"  state="yryyy"/>
    </tlLogic>
    <tlLogic id="GS_359925" type="static" programID="0" offset="0">
        <phase duration="27" state="rrrGggrrrGGg"/>
        <phase duration="3"  state="rrryyyrrryyy"/>
        <phase duration="27" state="GGGrrrrrrrrr"/>
        <phase duration="3"  state="yyyrrrrrrrrr"/>
        <phase duration="27" state="rrrrrrGGgGrr"/>
        <phase duration="3"  state="rrrrrryyyyrr"/>
    </tlLogic>
    <tlLogic id="GS_360018" type="static" programID="0" offset="0">
        <phase duration="40" state="Grr"/>
        <phase duration="5"  state="yrr"/>
        <phase duration="40" state="rGG"/>
        <phase duration="5"  state="ryy"/>
    </tlLogic>
    <tlLogic id="GS_360084" type="static" programID="0" offset="0">
        <phase duration="42" state="GGGgGGggrrr"/>
        <phase duration="3"  state="yyyyyyyyrrr"/>
        <phase duration="42" state="GrrrrrrrGGg"/>
        <phase duration="3"  state="yrrrrrrryyy"/>
    </tlLogic>
    <tlLogic id="GS_360086" type="static" programID="0" offset="0">
        <phase duration="42" state="GGGggrrrrGGGggrrrr"/>
        <phase duration="3"  state="yyyyyrrrryyyyyrrrr"/>
        <phase duration="42" state="rrrrrGGggrrrrrGGgg"/>
        <phase duration="3"  state="rrrrryyyyrrrrryyyy"/>
    </tlLogic>
    <tlLogic id="GS_360103" type="static" programID="0" offset="0">
        <phase duration="42" state="GGggrrrrGGggrrrr"/>
        <phase duration="3"  state="yyyyrrrryyyyrrrr"/>
        <phase duration="42" state="rrrrGGggrrrrGGgg"/>
        <phase duration="3"  state="rrrryyyyrrrryyyy"/>
    </tlLogic>
    <tlLogic id="GS_360135" type="static" programID="0" offset="0">
        <phase duration="42" state="GGgrrrrGGgg"/>
        <phase duration="3"  state="yyyrrrryyyy"/>
        <phase duration="42" state="rrrGGGgGrrr"/>
        <phase duration="3"  state="rrryyyyyrrr"/>
    </tlLogic>
    <tlLogic id="GS_365000" type="static" programID="0" offset="0">
        <phase duration="42" state="GGG"/>
        <phase duration="3"  state="yyy"/>
        <phase duration="42" state="GGG"/>
        <phase duration="3"  state="yyy"/>
    </tlLogic>
    <tlLogic id="GS_443868" type="static" programID="0" offset="0">
        <phase duration="42" state="GGGgGrrrr"/>
        <phase duration="3"  state="yyyyyrrrr"/>
        <phase duration="42" state="rrrrGGGGG"/>
        <phase duration="3"  state="rrrryyyyy"/>
    </tlLogic>
    <tlLogic id="GS_443898" type="static" programID="0" offset="0">
        <phase duration="42" state="GGGrr"/>
        <phase duration="3"  state="yyyrr"/>
        <phase duration="42" state="rrrGG"/>
        <phase duration="3"  state="rrryy"/>
    </tlLogic>
    <tlLogic id="GS_5707560366" type="static" programID="0" offset="0">
        <phase duration="79" state="GGggGGGg"/>
        <phase duration="6"  state="yyyyyyyy"/>
        <phase duration="5"  state="rrrrrrrr"/>
    </tlLogic>
    <tlLogic id="GS_660623569" type="static" programID="0" offset="0">
        <phase duration="42" state="GGGrr"/>
        <phase duration="3"  state="yyyrr"/>
        <phase duration="42" state="rrrGG"/>
        <phase duration="3"  state="rrryy"/>
    </tlLogic>
    <tlLogic id="GS_750549265" type="static" programID="0" offset="0">
        <phase duration="40" state="GGGG"/>
        <phase duration="5"  state="yyyy"/>
        <phase duration="40" state="GGGG"/>
        <phase duration="5"  state="yyyy"/>
    </tlLogic>
    <tlLogic id="GS_cluster_2106346103_2139839870" type="static" programID="0" offset="0">
        <phase duration="38" state="rrrGGGrrrrGGGGg"/>
        <phase duration="3"  state="rrryyyrrrryyyyy"/>
        <phase duration="37" state="GGgrrrGGggrrrrr"/>
        <phase duration="3"  state="yygrrryyggrrrrr"/>
        <phase duration="6"  state="rrGrrrrrGGrrrrr"/>
        <phase duration="3"  state="rryrrrrryyrrrrr"/>
    </tlLogic>
    <tlLogic id="GS_cluster_213280597_248160655" type="static" programID="0" offset="0">
        <phase duration="38" state="GGGrrrGGgg"/>
        <phase duration="3"  state="yyyrrryygg"/>
        <phase duration="6"  state="rrrrrrGGGG"/>
        <phase duration="3"  state="rrrrrryyyy"/>
        <phase duration="37" state="rrrGGGrrrr"/>
        <phase duration="3"  state="rrryyyrrrr"/>
    </tlLogic>
    <tlLogic id="GS_cluster_213432887_248109291" type="static" programID="0" offset="0">
        <phase duration="24" state="GGGgrrrGGggrrr"/>
        <phase duration="3"  state="yyyyrrryyggrrr"/>
        <phase duration="6"  state="rrrrrrrGGGGrrr"/>
        <phase duration="3"  state="rrrrrrryyyyrrr"/>
        <phase duration="24" state="rrrrGGGrrrrrrr"/>
        <phase duration="3"  state="rrrryyyrrrrrrr"/>
        <phase duration="24" state="GrrrrrrrrrrGGg"/>
        <phase duration="3"  state="yrrrrrrrrrryyy"/>
    </tlLogic>
    <tlLogic id="GS_cluster_2229418470_359915" type="static" programID="0" offset="0">
        <phase duration="20" state="GGGggrrrGGGrrrrG"/>
        <phase duration="5"  state="yyyggrrryyyrrrry"/>
        <phase duration="6"  state="GGGGGrrrrrrrrrrr"/>
        <phase duration="5"  state="yyyyyrrrrrrrrrrr"/>
        <phase duration="22" state="rrrrGGGGrrrrrrrr"/>
        <phase duration="5"  state="rrrryyyyrrrrrrrr"/>
        <phase duration="22" state="rrrrrrrrrrrGGGGG"/>
        <phase duration="5"  state="rrrrrrrrrrryyyyy"/>
    </tlLogic>
    <tlLogic id="GS_cluster_248109293_248112472" type="static" programID="0" offset="0">
        <phase duration="27" state="GGgrrGGgrr"/>
        <phase duration="3"  state="yyyrryyyrr"/>
        <phase duration="27" state="rrrGGrrrrr"/>
        <phase duration="3"  state="rrryyrrrrr"/>
        <phase duration="27" state="rrrrrrrrGG"/>
        <phase duration="3"  state="rrrrrrrryy"/>
    </tlLogic>
    <tlLogic id="GS_cluster_255227688_920262352" type="static" programID="0" offset="0">
        <phase duration="39" state="GGGrrrGGG"/>
        <phase duration="6"  state="yyyrrryyy"/>
        <phase duration="39" state="rrrGGGrrr"/>
        <phase duration="6"  state="rrryyyrrr"/>
    </tlLogic>
    <tlLogic id="GS_cluster_26538293_359615" type="static" programID="0" offset="0">
        <phase duration="42" state="rrrGGgrrrGG"/>
        <phase duration="3"  state="rrryyyrrryy"/>
        <phase duration="42" state="GGgrrrGGgrr"/>
        <phase duration="3"  state="yyyrrryyyrr"/>
    </tlLogic>
    <tlLogic id="GS_cluster_26538298_359625" type="static" programID="0" offset="0">
        <phase duration="42" state="rrGG"/>
        <phase duration="3"  state="rryy"/>
        <phase duration="42" state="GGrr"/>
        <phase duration="3"  state="yyrr"/>
    </tlLogic>
    <tlLogic id="GS_cluster_26721556_368851" type="static" programID="0" offset="0">
        <phase duration="82" state="GGGgGGG"/>
        <phase duration="3"  state="yyyyyyy"/>
        <phase duration="5"  state="rrrrrrr"/>
    </tlLogic>
    <tlLogic id="GS_cluster_26820111_68732804" type="static" programID="0" offset="0">
        <phase duration="33" state="GrrrrGGGrr"/>
        <phase duration="6"  state="yrrrryyyrr"/>
        <phase duration="33" state="rGGGggrrGG"/>
        <phase duration="6"  state="ryyyggrryy"/>
        <phase duration="6"  state="rGGGGGrrrr"/>
        <phase duration="6"  state="ryyyyyrrrr"/>
    </tlLogic>
    <tlLogic id="GS_cluster_2702746700_87303913" type="static" programID="0" offset="0">
        <phase duration="42" state="rrrrGGrGGGgg"/>
        <phase duration="3"  state="rrrryyryyyyy"/>
        <phase duration="42" state="GGgGrrGrrrrr"/>
        <phase duration="3"  state="yyyyrryrrrrr"/>
    </tlLogic>
    <tlLogic id="GS_cluster_299387959_458017" type="static" programID="0" offset="0">
        <phase duration="29" state="GGGggrrrrGGggrrrr"/>
        <phase duration="5"  state="yyyggrrrryyggrrrr"/>
        <phase duration="6"  state="rrrGGrrrrrrGGrrrr"/>
        <phase duration="5"  state="rrryyrrrrrryyrrrr"/>
        <phase duration="29" state="rrrrrGGggrrrrGGrr"/>
        <phase duration="5"  state="rrrrryyggrrrryyrr"/>
        <phase duration="6"  state="rrrrrrrGGrrrrrrGG"/>
        <phase duration="5"  state="rrrrrrryyrrrrrryy"/>
    </tlLogic>
    <tlLogic id="GS_cluster_313566_368880" type="static" programID="0" offset="0">
        <phase duration="33" state="rrrrGGGGggrrrrGGGgg"/>
        <phase duration="3"  state="rrrryyyyggrrrryyygg"/>
        <phase duration="6"  state="rrrrrrrrGGrrrrrrrGG"/>
        <phase duration="3"  state="rrrrrrrryyrrrrrrryy"/>
        <phase duration="33" state="GGggrrrrrrGGggrrrrr"/>
        <phase duration="3"  state="yyggrrrrrryyggrrrrr"/>
        <phase duration="6"  state="rrGGrrrrrrrrGGrrrrr"/>
        <phase duration="3"  state="rryyrrrrrrrryyrrrrr"/>
    </tlLogic>
    <tlLogic id="GS_cluster_313569_443844" type="static" programID="0" offset="0">
        <phase duration="42" state="rrrGGGrr"/>
        <phase duration="3"  state="rrryyyrr"/>
        <phase duration="42" state="GGGrrrGG"/>
        <phase duration="3"  state="yyyrrryy"/>
    </tlLogic>
    <tlLogic id="GS_cluster_357154_357159" type="static" programID="0" offset="0">
        <phase duration="38" state="rrrGGrGGG"/>
        <phase duration="3"  state="rrryyryyy"/>
        <phase duration="37" state="GGgrrGgrr"/>
        <phase duration="3"  state="yygrryyrr"/>
        <phase duration="6"  state="GGGrrrrrr"/>
        <phase duration="3"  state="yyyrrrrrr"/>
    </tlLogic>
    <tlLogic id="GS_cluster_357160_358185" type="static" programID="0" offset="0">
        <phase duration="38" state="GGGggrrrrrGGGGgg"/>
        <phase duration="3"  state="yyyggrrrrryyyygg"/>
        <phase duration="6"  state="rrrGGrrrrrrrrrGG"/>
        <phase duration="3"  state="rrryyrrrrrrrrryy"/>
        <phase duration="37" state="rrrrrGGGGgGrrrrr"/>
        <phase duration="3"  state="rrrrryyyyyyrrrrr"/>
    </tlLogic>
    <tlLogic id="GS_cluster_357161_364311_410296515" type="static" programID="0" offset="0">
        <phase duration="42" state="GGrrGGGG"/>
        <phase duration="3"  state="yyrryyyy"/>
        <phase duration="42" state="rrGGGrrr"/>
        <phase duration="3"  state="rryyyrrr"/>
    </tlLogic>
    <tlLogic id="GS_cluster_357187_359543" type="static" programID="0" offset="0">
        <phase duration="35" state="rrrrGGGGggrrrrGGGGrr"/>
        <phase duration="5"  state="rrrryyyyggrrrryyyyrr"/>
        <phase duration="6"  state="rrrrrrrrGGrrrrrrrrGG"/>
        <phase duration="5"  state="rrrrrrrryyrrrrrrrryy"/>
        <phase duration="34" state="GGggrrrrrrGGggrrrrrr"/>
        <phase duration="5"  state="yyyyrrrrrryyyyrrrrrr"/>
    </tlLogic>
    <tlLogic id="GS_cluster_359672_359673" type="static" programID="0" offset="0">
        <phase duration="42" state="GGGrrrGG"/>
        <phase duration="3"  state="yyyrrryy"/>
        <phase duration="42" state="rrrGGGrr"/>
        <phase duration="3"  state="rrryyyrr"/>
    </tlLogic>
    <tlLogic id="GS_cluster_359927_368857" type="static" programID="0" offset="0">
        <phase duration="38" state="GGgggGGGggrrrrr"/>
        <phase duration="3"  state="yygggyyyggrrrrr"/>
        <phase duration="6"  state="rrGGGrrrGGrrrrr"/>
        <phase duration="3"  state="rryyyrrryyrrrrr"/>
        <phase duration="37" state="GrrrrrrrrrGGGGg"/>
        <phase duration="3"  state="yrrrrrrrrryyyyy"/>
    </tlLogic>
    <tlLogic id="GS_cluster_363969643_725152260" type="static" programID="0" offset="0">
        <phase duration="42" state="rrrGGGgGGgg"/>
        <phase duration="3"  state="rrryyyyyyyy"/>
        <phase duration="42" state="GGgGrrrrrrr"/>
        <phase duration="3"  state="yyyyrrrrrrr"/>
    </tlLogic>
    <tlLogic id="GS_cluster_443826_443827_443828_443829" type="static" programID="0" offset="0">
        <phase duration="27" state="rrrrrrGGGGrrrrGGGgg"/>
        <phase duration="6"  state="rrrrrryyyyrrrryyygg"/>
        <phase duration="6"  state="rrrrrrrrrrrrrrGGGGG"/>
        <phase duration="6"  state="rrrrrrrrrrrrrryyyyy"/>
        <phase duration="27" state="GGGrrrrrrrGGggrrrrr"/>
        <phase duration="6"  state="yyyrrrrrrryyggrrrrr"/>
        <phase duration="6"  state="rrrGGGrrrrrrGGrrrrr"/>
        <phase duration="6"  state="rrryyyrrrrrryyrrrrr"/>
    </tlLogic>
    <tlLogic id="cluster_1093872870_2282235833_359633_359641_4844155085_8790447814" type="static" programID="0" offset="0">
        <phase duration="27" state="rrrGGGGgrrrrrrGG"/>
        <phase duration="3"  state="rrryyyyyrrrrrryy"/>
        <phase duration="27" state="rrrrrrrrGGGGGGrr"/>
        <phase duration="3"  state="rrrrrrrryyyyyyrr"/>
        <phase duration="27" state="GGGrrrrgGrrrrrrr"/>
        <phase duration="3"  state="yyyrrrryyrrrrrrr"/>
    </tlLogic>
    <tlLogic id="cluster_1142037858_1142037871_1142037884_4043523034_443339" type="static" programID="0" offset="0">
        <phase duration="24" state="GGGGGgGrrrrrrr"/>
        <phase duration="6"  state="yyyyyyyrrrrrrr"/>
        <phase duration="24" state="rrGGGrrrrrGGGG"/>
        <phase duration="6"  state="rryyyrrrrryyyy"/>
        <phase duration="24" state="rrGGrrrGggrrrG"/>
        <phase duration="6"  state="rryyrrryyyrrry"/>
    </tlLogic>
    <tlLogic id="cluster_1142200353_254414030_443902" type="static" programID="0" offset="0">
        <phase duration="15" state="GrrGrrGGGrrr"/>
        <phase duration="6"  state="yrryrryyyrrr"/>
        <phase duration="17" state="GrrGGGrGGrrr"/>
        <phase duration="6"  state="yrryyyryyrrr"/>
        <phase duration="17" state="rrrrrrrrrGGG"/>
        <phase duration="6"  state="rrrrrrrrryyy"/>
        <phase duration="17" state="GGGrrrrrrrrr"/>
        <phase duration="6"  state="yyyrrrrrrrrr"/>
    </tlLogic>
    <tlLogic id="cluster_1142200361_272821756_4043523031_443859" type="static" programID="0" offset="0">
        <phase duration="15" state="GrrrrrGGGGrGGr"/>
        <phase duration="6"  state="yrrrrryyyyryyr"/>
        <phase duration="17" state="GrrrrrGrrrGGGr"/>
        <phase duration="6"  state="yrrrrryrrryyyr"/>
        <phase duration="17" state="gGGrrrrrrrrrrG"/>
        <phase duration="6"  state="yyyrrrrrrrrrry"/>
        <phase duration="17" state="rrrGGGrrrrrrrr"/>
        <phase duration="6"  state="rrryyyrrrrrrrr"/>
    </tlLogic>
    <tlLogic id="cluster_1238728_2258353014_2630343391_5861014010" type="static" programID="0" offset="0">
        <phase duration="24" state="rrrrGGGgrrrrGrrrr"/>
        <phase duration="6"  state="rrrryyyyrrrryrrrr"/>
        <phase duration="24" state="GGggrrrrGGggrrrrr"/>
        <phase duration="6"  state="yyyyrrrryyyyrrrrr"/>
        <phase duration="24" state="GrrrrrrrrrrrrGGGg"/>
        <phase duration="6"  state="yrrrrrrrrrrrryyyy"/>
    </tlLogic>
    <tlLogic id="cluster_1238741_376461691_615623844_615623884_8787338122" type="static" programID="0" offset="0">
        <phase duration="42" state="GgGrr"/>
        <phase duration="3"  state="yyyrr"/>
        <phase duration="42" state="rrGGG"/>
        <phase duration="3"  state="rryyy"/>
    </tlLogic>
    <tlLogic id="cluster_1238745_299387727_4333629297" type="static" programID="0" offset="0">
        <phase duration="24" state="rrrGGgrGGggr"/>
        <phase duration="6"  state="rrryyyryyyyr"/>
        <phase duration="24" state="GGgrrrGrrrrr"/>
        <phase duration="6"  state="yyyrrryrrrrr"/>
        <phase duration="24" state="GrrrrrrrrrGG"/>
        <phase duration="6"  state="yrrrrrrrrryy"/>
    </tlLogic>
    <tlLogic id="cluster_1352634_1352636_1776914444_1776914447_313719303_313719304_368859_5245035974_8629643235_8699441672_8701855549_8808571856" type="static" programID="0" offset="0">
        <phase duration="24" state="GrrrGGGGrrgg"/>
        <phase duration="3"  state="yrrryyyyrrgg"/>
        <phase duration="6"  state="rrrrrrrrrrGG"/>
        <phase duration="3"  state="rrrrrrrrrryy"/>
        <phase duration="24" state="GrrgGGrrGGrr"/>
        <phase duration="3"  state="yrryyyrryyrr"/>
        <phase duration="24" state="GGGgGrrrrrrr"/>
        <phase duration="3"  state="yyyyyrrrrrrr"/>
    </tlLogic>
    <tlLogic id="cluster_1450857663_2138612055_2138612056_2340583208_257894366_380574766_380574767_380574774_474478_920262373_920262390" type="static" programID="0" offset="0">
        <phase duration="39" state="GGGGGgrGGGGrrrr"/>
        <phase duration="6"  state="yyyyyyryyyyrrrr"/>
        <phase duration="39" state="rrrrrrgrrrrGGGG"/>
        <phase duration="6"  state="rrrrrryrrrryyyy"/>
    </tlLogic>
    <tlLogic id="cluster_1490637117_655244845_655244867_655244884_655244906_655244957_655244982_655245030_655245047_655245114_655245122_655245138_655245326_655245405_655245407_655245408" type="static" programID="0" offset="0">
        <phase duration="27" state="GGrrrrrrrrr"/>
        <phase duration="3"  state="yyrrrrrrrrr"/>
        <phase duration="27" state="rrGGgrrrrGG"/>
        <phase duration="3"  state="rryyyrrrryy"/>
        <phase duration="27" state="rrrrrGGGGrr"/>
        <phase duration="3"  state="rrrrryyyyrr"/>
    </tlLogic>
    <tlLogic id="cluster_1574173990_1574173996_2107249694_2135015355_2340583210_26949020_3356991002_3356991018_380517454_380517456_380517459_474475_617824273_854639358_854639360_8812731162" type="static" programID="0" offset="0">
        <phase duration="78" state="GGGGgggggGGGg"/>
        <phase duration="3"  state="yyyygggggyyyy"/>
        <phase duration="6"  state="rrrrGgGggrrrr"/>
        <phase duration="3"  state="rrrryyyyyrrrr"/>
    </tlLogic>
    <tlLogic id="cluster_1587600316_3292288840_3292288841_3292288842_360144_419032636_8994366878" type="static" programID="0" offset="0">
        <phase duration="42" state="GgGrr"/>
        <phase duration="3"  state="yyyrr"/>
        <phase duration="42" state="rrGGG"/>
        <phase duration="3"  state="rryyy"/>
    </tlLogic>
    <tlLogic id="cluster_1587816161_31792614_4043537742_6393212850" type="static" programID="0" offset="0">
        <phase duration="40" state="rrrrrGgggGGGg"/>
        <phase duration="5"  state="rrrrryyyyyyyy"/>
        <phase duration="40" state="GGGGGrrrrrrrr"/>
        <phase duration="5"  state="yyyyyrrrrrrrr"/>
    </tlLogic>
    <tlLogic id="cluster_160627037_442125150_5861013998_5861013999_5861014001_7334552496_7334552499" type="static" programID="0" offset="0">
        <phase duration="20" state="rrrrGGggrrrrrrrGGgg"/>
        <phase duration="5"  state="rrrryyggrrrrrrryygg"/>
        <phase duration="6"  state="rrrrrrGGrrrrrrrrrGG"/>
        <phase duration="5"  state="rrrrrryyrrrrrrrrryy"/>
        <phase duration="22" state="GGggrrrrrrrGGggrrrr"/>
        <phase duration="5"  state="yyyyrrrrrrryyyyrrrr"/>
        <phase duration="22" state="rrrrrrrGGGGrrrrrrrr"/>
        <phase duration="5"  state="rrrrrrryyyyrrrrrrrr"/>
    </tlLogic>
    <tlLogic id="cluster_1638968557_1672324022_255072376_286416918_9085728915" type="static" programID="0" offset="0">
        <phase duration="42" state="GrrGG"/>
        <phase duration="3"  state="yrryy"/>
        <phase duration="42" state="rGGGr"/>
        <phase duration="3"  state="ryyyr"/>
    </tlLogic>
    <tlLogic id="cluster_1672454856_295804641" type="static" programID="0" offset="0">
        <phase duration="42" state="GGGGrrr"/>
        <phase duration="3"  state="yyyyrrr"/>
        <phase duration="42" state="rrrrGGG"/>
        <phase duration="3"  state="rrrryyy"/>
    </tlLogic>
    <tlLogic id="cluster_1854470254_2125728617_449842_526789084_526789087_526789090_87317727" type="static" programID="0" offset="0">
        <phase duration="42" state="GGGrr"/>
        <phase duration="3"  state="yyyrr"/>
        <phase duration="42" state="GrrGg"/>
        <phase duration="3"  state="yrryy"/>
    </tlLogic>
    <tlLogic id="cluster_2104502935_2104529612_2607239074_315319530_316708951_360032_4444605921" type="static" programID="0" offset="0">
        <phase duration="35" state="GGrrrrrGGg"/>
        <phase duration="5"  state="yyrrrrryyy"/>
        <phase duration="6"  state="GGGGrrrrrr"/>
        <phase duration="5"  state="yyyyrrrrrr"/>
        <phase duration="34" state="rrrrGGGrrr"/>
        <phase duration="5"  state="rrrryyyrrr"/>
    </tlLogic>
    <tlLogic id="cluster_25630547_32950326_5707510403" type="static" programID="0" offset="0">
        <phase duration="78" state="GGGgGGgg"/>
        <phase duration="3"  state="yyyyyygg"/>
        <phase duration="6"  state="rrrrGGGG"/>
        <phase duration="3"  state="rrrryyyy"/>
    </tlLogic>
    <tlLogic id="cluster_259598745_259598754_31792550_6051214096_6185611297_8815068432_8815068436" type="static" programID="0" offset="0">
        <phase duration="42" state="rrrrGGggrrrrGGgg"/>
        <phase duration="3"  state="rrrryyyyrrrryyyy"/>