<?xml version="1.0"?>

<routes> <!-- The opening tag -->

   <!-- Vehicle types -->
   <vType id="passenger" length="5.0" width="2.0" maxSpeed="70.0" accel="2.6" decel="4.5" sigma="0.5"/>

   <!-- Routes + associated vehicles & flows -->
   <route id="trip-0" color="Magenta" edges="130147382#0 130147382#2 130147382#3 130147382#4 28523862#0 28198821#0 28198821#5 28198821#6 32038056#0 27431130 60966951 149583694#0 908924988#0 32324543#0 28523803#0 541566701 144935692#0 144935692#1 144935692#2 167324659#0 55940134#0 186463490 930736467 930736468 835792564 930736464 930736465 154755102#0 154755102#1 154755102#2 -8096211#2 8096211#0"/>
   <vehicle id="vehicle-0" type="passenger" color="Yellow" depart="0.0" route="trip-0"/>

   <route id="trip-1" color="Magenta" edges="23013528#0 48012544#0 48012544#2 48012544#3 877599645 203322740#0 -154511600#2 -154511600#0 88235135#0 32007885#2 32008097#0 479545489#0 479545489#1 169455026 187070212#0 37873571#0 37873571#1 37873571#2 187070213#0 402179132 37873574 175589820 315921077#0 315921077#1 154755110#0 86415848 175589819#0 175589819#1 175589819#2 154333001#1 169453888#0 145345137#0 1065802292 667410647 150039007#0 150039007#1 150039007#2 667410644#0 9823971#0 9823971#1 9823971#2 9823971#3 857811041#0 51081171#0 51081171#1 51081171#2 906649715 751168040#0 751168040#1 5667174#0 5667174#2 37347656 219018758#0 32011636#0 51857159 219098056 32064260#0 32064260#5 32064261 541566703#0 -32324543#2 -908924988#2 -149583694#2 -60966951 -27431130 -32038056#6 -28198821#8 -28198821#5 -28198821#4 130165205#0 130165205#2 28523856#0 32038441#0 -28198797#1 4146755#0 4146756#0 37191915#0 37191915#1 37191915#2 37191915#3 800951534#0"/>
   <vehicle id="vehicle-1" type="passenger" color="Yellow" depart="0.01" route="trip-1"/>

   <route id="trip-2" color="Magenta" edges="5015532#0 5015532#2 5015532#4 5015531#0 27404900#0 27404839#1 583283169 583283195 29319045 289753604 27115122#0 27115122#1 583283156#0 583283156#1 255094956#0 824267465 255094955#0 255094955#2 2936806#0 113160347#0 113160347#2 255104326#0 51681577#1 321451886 4895018#0 -629582672#1 -206782858#4 -206782858#3 -206782858#2 -218408988#1 4390895#0 -8759465#8 -8759465#5 -8759465#2 36590980#0 37705430#0 147549213 620340708 620340709#0 620340711#0 620340706#0 28889303#1 180723490 180723489#0 180723491#0 620340714#0 154743411#0 620340713 620340716 501460458#0 110967368#0 4400197#0"/>
   <vehicle id="vehicle-2" type="passenger" color="Yellow" depart="0.02" route="trip-2"/>

   <route id="trip-3" color="Magenta" edges="51718611#1 -165515970#1 -165515970#0 -8225101 -8096211#2 150031207#8 23493261#0 28542995#0 303244432#0 303244432#1 734784830#0 109063043 23493260#0 23493260#4 23493260#5 1065802294 303244426 768603506 48587065#0 48587065#1 146789540#0 146789540#1 768602479 25071937 4400322#0 39606301 189054412 78419224#1 401880207 1065789417 5667170#0 1065789418 33275106#0"/>
   <vehicle id="vehicle-3" type="passenger" color="Yellow" depart="0.03" route="trip-3"/>

   <route id="trip-4" color="Magenta" edges="-43086693#0 24449422 150031197#4 173282740 -37637984 8195774#0 25101965#0 25101965#2 667410669#0"/>
   <vehicle id="vehicle-4" type="passenger" color="Yellow" depart="0.04" route="trip-4"/>

   <route id="trip-5" color="Magenta" edges="-8196629#2 -8196629#0 -667410671#2 8196616#0 8196616#2 667410673#0 37331983#0 -37331983#0"/>
   <vehicle id="vehicle-5" type="passenger" color="Yellow" depart="0.05" route="trip-5"/>

   <route id="trip-6" color="Magenta" edges="4045315#1 32063313 37331977 23429231#0 23429231#1 23429231#2 32038056#0 27431130 60966951 149583694#0 908924988#0 32324543#0 -541566703#2 -32064261 -32064260#8 -32064260#3 -219098056 219098057#0 206080341#0 206080341#3 -37347656 27404213#0 118041104#0 26704778#1 26704778#8 115106778#0 115106778#2 115106778#3 26784170#0 25150041#0 25150041#1 25150041#2 10212092#0 -20185105 24693845#0 24693834#0 24693834#1 23395143 -543531545#3 -543531545#2 543524593 23013526 -22598780#1 -22598780#0 51827455#4 22598770#0 22598770#2 37873569#0"/>
   <vehicle id="vehicle-6" type="passenger" color="Yellow" depart="0.06" route="trip-6"/>

   <route id="trip-7" color="Magenta" edges="109539742#1 4391001#0 303245743 51348112#0 374831953#0 303245744 1065789419 135786926#0 -350444361#2 -350444363 -9831193#3 -9831193#2 33814452#0 33814452#1 33814452#2 33814452#4 33814452#5 349603488#0 349603488#1 4391050#0 4391050#2 349603490#0 620340717#0 -620340716 -620340715 -154743411#2 -620340714#2 -180723491#1 -180723489#2 -180723490 -620340712#1 -28889303#0 -620340711#2 -620340709#2 -620340705 -147549213 -37705430#2 -36590980#2 8759465#0 8759465#3 8759465#6 5667157#0 36590981#0 629587443#0 206782858#3 206782858#4 629582672#0 -629582672#1 -206782858#4"/>
   <vehicle id="vehicle-7" type="passenger" color="Yellow" depart="0.07" route="trip-7"/>

   <route id="trip-8" color="Magenta" edges="50629722 129833340#0 129833341#0 917044794#0 129833347 218723887 2829323#0 1072961179#0 32856811#0 32856811#3 751868780#0 28542897#1 135556213 4146734#0 321899440 25606747#0 113160346 36590984#5 60342000#0 4071484#0 4071484#2 54609701 249483430 27404839#0 27404839#1 583283169 583283195 29319045 289753604 27115122#0"/>
   <vehicle id="vehicle-8" type="passenger" color="Yellow" depart="0.08" route="trip-8"/>

   <route id="trip-9" color="Magenta" edges="-121935993#3 -121935993#0 121935993#0 121935993#3 121935993#4 121935993#5 121935993#6 4400318#3 48591635#0 23568429 48591634#0 48591634#1 50557487#0 50557487#1 188052918#1 154755085#0 154755085#1 83703647#1 83703647#2 83703647#3 83703647#4 83703645 23493040 64488045 917044790 122989592#0 542512895 326986553 154755115#1 147148321 23493179#0 50629722 129833340#0 129833341#0 917044794#0 129833347 218723887 2829323#0 1072961179#0 32856811#0 32856811#3 751868780#0 28542897#1 135556213 322456247 322456251#0 27404830#0 32857154 25606746#0 25606746#2 322456245 322456250#0 150031245#0 47426157 135593540#0 399060413#0 399060413#1"/>
   <vehicle id="vehicle-9" type="passenger" color="Yellow" depart="0.09" route="trip-9"/>

   <route id="trip-10" color="Magenta" edges="5015544#0 5015543#0 5015543#1 5015543#2 -130165206#4 -130165206#2 -130165206#1 -5015536#4 5015532#0 5015532#2 5015532#4 5015531#0 695829779 5015525 902153042 902142187#2"/>
   <vehicle id="vehicle-10" type="passenger" color="Yellow" depart="0.1" route="trip-10"/>

   <route id="trip-11" color="Magenta" edges="150031207#5 8096211#0 26519352#0 8096212 948795440 165511531#0 8225109#0 8225109#3 85470309#3 85470309#4 85470309#5 -8225144#0 -667410643#1 -667410643#0 -8225118#2 154502579#0 667410645 667410646#0 -329890956 329890956"/>
   <vehicle id="vehicle-11" type="passenger" color="Yellow" depart="0.11" route="trip-11"/>

   <route id="trip-12" color="Magenta" edges="-5004995#0 5004995#0 5004995#1 -4999337#1 32021843#3 51857078#0 51857078#3 160312590#0 160312590#1 160312590#2 322456246#0 322456246#1 322456248#0 322456245 322456250#0 150031245#0 47426157 135593540#0 399060413#0 399060413#1 947308251#0 467758206#0 406217856#0 1072955734#0 1072955734#1 28542886#0 28542886#3 166222937#0 389193083#1 150031230 542512892#0 542512892#1 150031207#0 150031207#3 150031207#5 150031207#8 23493261#0 28542995#0 303244432#0 303244432#1 23493181#0 23493181#3 917044790 122989592#0 542512895 326986553 4400297#0 205044667 53212168#0 23800804#1"/>
   <vehicle id="vehicle-12" type="passenger" color="Yellow" depart="0.12" route="trip-12"/>

   <route id="trip-13" color="Magenta" edges="-188676296#12 -188676296#11 -188676296#8 -188676296#2 -942009653#1 644602341 32038320#0 942009661 32038319#1 148045530#1 32021298#0 32021298#1 583283159 23429231#0 23429231#1 23429231#2 32038056#0 27431130 60966951 149583694#0 908924988#0 32324543#0 -541566703#2 -32064261 32064261"/>
   <vehicle id="vehicle-13" type="passenger" color="Yellow" depart="0.13" route="trip-13"/>

   <route id="trip-14" color="Magenta" edges="25102332 35029564#0 123355479#0 123355479#1 123355479#3 154502563 37637984 -173282740 150031197#6 150031197#8 8196620#0 8196620#1 37390741#0 37390741#3 32021100#0 32021100#1 32021100#3 218930183#0 218930181 218895701 800616215#0 475663109#0 -149583694#2 -60966951 -27431130 -32038056#6 32038051 583283168 254959489 -894292811 -265984914#1 -340337295#3 -340337295#0 -1086848625 -5015536#4 5015536#3"/>
   <vehicle id="vehicle-14" type="passenger" color="Yellow" depart="0.14" route="trip-14"/>

   <route id="trip-15" color="Magenta" edges="4045331#1 -41910185#4 241660955#12 241660955#15 241660955#16 241660955#19 241660955#22 241660955#23 241660955#27 28523868#1 28523868#4 28523868#5 28523868#10 340337295#0 340337295#1 265984914#0 894292811 289753604 27115122#0 27115122#1 583283156#0 583283156#1 255094956#0 824267465 255094955#0 255094955#2 2936806#0 113160347#0 113160347#2 255104326#0 51681577#1 321451886 4895018#0 -629582672#1 -206782858#4 -206782858#3 -206782858#2 -218408988#1 4390895#0 -8759465#8 -8759465#5 -8759465#2 -542816793#2 -26155687#1 -26155687#0 -947918726#2 -947918726#0 26155685 151057637#2 -213185325#8 -213185325#6 -213185325#5 -213185325#4 -213185325#3 -213185325#2"/>
   <vehicle id="vehicle-15" type="passenger" color="Yellow" depart="0.15" route="trip-15"/>

   <route id="trip-16" color="Magenta" edges="-241660955#31 241660955#27 130165209#1 130165208#0 130165208#1 37331979 28523862#0 28198821#0 28198821#5 28198821#6 32038056#0 27431130 60966951 149583694#0 908924988#0 32324543#0 -541566703#2 -32064261 -32064260#8 -32064260#3 -219098056 219098057#0 206080341#0 206080341#3 -37347656 27404213#0 118041104#0 26704778#1 26704778#8 115106778#0 115106778#2 115106778#3 26784170#0 26784170#3 667410641#0 154502579#0 667410645 667410646#0 667410646#1 27115018#0 198171539#0 198171539#2 169465734#1 169465735#1 501456678 145345140#0 169453895 665030635#0 32902722#0 32902722#2 32902722#7"/>
   <vehicle id="vehicle-16" type="passenger" color="Yellow" depart="0.16" route="trip-16"/>

   <route id="trip-17" color="Magenta" edges="23800191#2 234546135 131651824 130997388#0 130997388#1 130659365 393422408#0 393422408#1 4400215#0 150031207#5 150031207#8 23493261#0 28542995#0 303244432#0 303244432#1 23493181#0 23493181#3 917044790 122989592#0 995578820 154755122#3 29207110 36564599 23567119#0"/>
   <vehicle id="vehicle-17" type="passenger" color="Yellow" depart="0.17" route="trip-17"/>

   <route id="trip-18" color="Magenta" edges="313982939 623090131 252773096#0 135786926#0 23571566#0 159281728#0 252773097 623090133#2 203486082 200763473 33386769#0 33444803#0 39606300 33302833 147144448 23568396#2 10318490#0 203971501#0 727302499 4400318#0 4400318#2 -121935993#6 -121935993#5 88679040 23015856#0 23015856#1 23015856#2 23015856#3 63589540 -23015859 23487106"/>
   <vehicle id="vehicle-18" type="passenger" color="Yellow" depart="0.18" route="trip-18"/>

   <route id="trip-19" color="Magenta" edges="130165209#1 130165208#0 130165208#1 37331979 28523862#0 28198821#0 28198821#5 28198821#6 32038056#0 27431130 60966951 149583694#0 908924988#0 32324543#0 28523803#0 541566701 144935692#0 144935692#1 144935692#2 167324659#0 55940134#0 186463490 930736467 930736468 835792564 930736464 930736465 154755102#0 154755102#1 154755102#2 -8096211#2 150031207#8 23493261#0 28542995#0 303244432#0 303244432#1 734784830#0 109063043 23493260#0 23493260#4 23493260#5 1065802294 303244426 768603506 4400319 48587087 48587086#0 48587086#1 1075393377 100132117 30743982 44037603#0 44037603#1 32233474#0 142518656#1 23914009#0 23914009#1 23914009#2 288620099 4537892#0 4537892#1"/>
   <vehicle id="vehicle-19" type="passenger" color="Yellow" depart="0.19" route="trip-19"/>

   <route id="trip-20" color="Magenta" edges="315921078#0 315921078#1 154755110#0 86415860#0 86415860#1 88680005#1 203971499#0 203971501#0 10318488#0 10318488#2 4400322#0 39606301 189054412 78419224#1 401880207 1065789417 5667170#0 203486081 48654842 51348099 401880206 313982939 623090131 252773096#0 135786926#0 166615190#0 8677666 349914644 23572047"/>
   <vehicle id="vehicle-20" type="passenger" color="Yellow" depart="0.2" route="trip-20"/>

   <route id="trip-21" color="Magenta" edges="25101966 34999321#2 24693845#0 24693845#1 154502572#5 -10212091#3 23015813#0 329890956 667410646#1 27115018#0 198171539#0 198171539#2 169465734#1 169465735#1 501456678 169453887#0 402179132 37873574 175589820 315921077#0 315921077#1 23487153#0 48826945#0 32213071#0 540101366 32008097#0 479545489#0 479545489#1 -479545489#1 -479545489#0 -32008097#1"/>
   <vehicle id="vehicle-21" type="passenger" color="Yellow" depart="0.21" route="trip-21"/>

   <route id="trip-22" color="Magenta" edges="-4045327#0 513372262 28753431 -64487932#12 -64487932#8 -64487932#7 -64487932#6 -64487932#3 -64487932#0 28198797#1 28374726#0 28523862#0 28198821#0 28198821#5 28198821#6 32038051 583283168 254959489 289753604 27115122#0 27115122#1 583283156#0 583283156#1 255094956#0 824267465 255094955#0 255094955#2 2936806#0 113160347#0 113160347#2 255104326#0 51681577#1 321451886 4895018#0 -629582672#1 -206782858#4 -206782858#3 -206782858#2 -218408988#1 4390895#0 -8759465#8 -8759465#5 -8759465#2 36590980#0 37705430#0 147549213 620340708 620340709#0 620340711#0 620340706#0 28889303#1 180723490 180723489#0 180723491#0 620340714#0 389119027 389119030#2 23799989#0"/>
   <vehicle id="vehicle-22" type="passenger" color="Yellow" depart="0.22" route="trip-22"/>

   <route id="trip-23" color="Magenta" edges="23487153#0 -39764938#1 154755110#0 86415860#0 86415860#1 88680005#1 203971499#0 203971501#0 727302499 4400318#0 4400318#2 4400318#3 48591635#0 23568429 48591634#0 48591634#1 50557487#0 50557487#1 188052918#1 154755085#0 4400311 145033134#1 199239574#1 32108791#0 32108791#2 23493260#4 23493260#5 1065802294 303244426 768603506 48587065#0 48587065#1"/>
   <vehicle id="vehicle-23" type="passenger" color="Yellow" depart="0.23" route="trip-23"/>

   <route id="trip-24" color="Magenta" edges="34998402#0 543524588#0 543524590#0 543524593 925248670#0 543524596#0 543524596#2 543524596#4 34998405 37873571#0 37873571#1 37873571#2 187070213#0 4400324#0 169453889#0-AddedOnRampEdge 169453889#0 203971501#0 10318488#0 10318488#2 4400322#0 39606301 189054412 78419224#1 401880207 1065789417 5667170#0 203486081 48654842 51348099 401880206 313982939 623090131 51348102#0"/>
   <vehicle id="vehicle-24" type="passenger" color="Yellow" depart="0.24" route="trip-24"/>

   <route id="trip-25" color="Magenta" edges="23393212#4 22598771#0 22598771#1 51827455#3 22598780#0 22598780#1 158942306#0 158942306#1 23013041#1 23013041#2 543524593 925248670#0 543524596#0 543524596#2 543524596#4 34998405 37873571#0 37873571#1 37873571#2 187070213#0 4400324#0 169453889#0-AddedOnRampEdge 169453889#0 203971501#0 727302499 4400318#0 4400318#2 4400318#3 48591635#0 23568429 48591634#0 48591634#1 50557487#0 50557487#1 188052918#1 154755085#0 4400311 145033134#1 199239574#1 32108791#0 32108791#2 23493260#4 23493260#5"/>
   <vehicle id="vehicle-25" type="passenger" color="Yellow" depart="0.25" route="trip-25"/>

   <route id="trip-26" color="Magenta" edges="-241660955#22 241660955#22 241660955#23 241660955#27 130165209#1 130165208#0 130165208#1 37331979 28523862#0 28198821#0 28198821#5 28198821#6 32038056#0 27431130 60966951 149583694#0 908924988#0 32324543#0 28523803#0 541566701 144935692#0 144935692#1 144935692#2 167324659#0 55940134#0 186463490 930736467 930736468 835792564 930736464 930736465 154755102#0 154755102#1 154755102#2 -8096211#2 150031207#8 23493261#0 28542995#0 303244432#0 303244432#1 734784830#0 109063043 23493260#0 23493260#4 23493260#5 1065802294 303244426 768603506 48587065#0 48587065#1 146789540#0 146789540#1 768602479 25071937 4400322#0 39606301 189054412 78419225#0 33444803#0 39606300 33302833 147144449"/>
   <vehicle id="vehicle-26" type="passenger" color="Yellow" depart="0.26" route="trip-26"/>

   <route id="trip-27" color="Magenta" edges="130147329#0 130147329#1 130147329#2 130147382#0 130147382#2 130147382#3 130147382#4 28523862#0 28198821#0 28198821#5 28198821#6 32038056#0 27431130 60966951 149583694#0 908924988#0 32324543#0 28523803#0 541566701 144935692#0 144935692#1 144935692#2 167324659#0 55940134#0 186463490 930736467 930736468 835792564 930736464 930736465 154755102#0 154755102#1 154755102#2 -8096211#2 150031207#8 23493261#0 28542995#0 303244432#0 303244432#1 734784830#0 109063043 23493260#0 23493260#4 23493260#5 1065802294 303244426 768603506 4400319 48587087 48587086#0 48587086#1 1075393377 100132117 30743982 44037603#0 44037603#1 32233474#0 142518656#1 23914009#0 23914009#1 23914009#2 24037280 82548195#0 373038379 154755092#0 23493807#0 1063103289 133872755 -8076097#3 -8076097#2 8076097#0"/>
   <vehicle id="vehicle-27" type="passenger" color="Yellow" depart="0.27" route="trip-27"/>

   <route id="trip-28" color="Magenta" edges="349914645#1 349914645#2 -350444361#2 -350444363 -9831193#3 -9831193#2 33814452#0 33814452#1 33814452#2 33814452#4 33814452#5 349603488#0 349603488#1 4391050#0 4391050#2 349603490#0 -4400202 110967368#0 109539742#0 109539742#1 4391001#0"/>
   <vehicle id="vehicle-28" type="passenger" color="Yellow" depart="0.28" route="trip-28"/>

   <route id="trip-29" color="Magenta" edges="25102283#7 -8196629#0 -667410671#2 667410671#0 8196629#0"/>
   <vehicle id="vehicle-29" type="passenger" color="Yellow" depart="0.29" route="trip-29"/>

   <route id="trip-30" color="Magenta" edges="1082834947 150031257#0 150031257#3 166604273#0 34998402#0 543524588#0 543524590#0 543524593 925248670#0 543524596#0 543524596#2 543524596#4 34998405 37873571#0 37873571#1 37873571#2 187070213#0 4400324#0 169453889#0-AddedOnRampEdge 169453889#0 203971501#0"/>
   <vehicle id="vehicle-30" type="passenger" color="Yellow" depart="0.3" route="trip-30"/>

   <route id="trip-31" color="Magenta" edges="321899440 25606747#0 113160346 36590984#5 60342000#0 4071484#0 4071484#2 54609701 249483430 27404839#0 27404839#1 583283169 583283195 29319045 583283189 27115123#0 27115123#1 27115123#3 27115123#5 583283167#0 32038056#0 27431130 60966951 149583694#0 908924988#0 32324543#0 -541566703#2 -32064261 -32064260#8 -32064260#3 -219098056 219098057#0 206080341#0 206080341#3"/>
   <vehicle id="vehicle-31" type="passenger" color="Yellow" depart="0.31" route="trip-31"/>

   <route id="trip-32" color="Magenta" edges="-121935993#5 88679040 203971499#0 203971501#0 10318488#0 10318488#2 4400322#0 39606301 189054412 78419225#0 33444803#0 39606300 33302833 147144448 23568396#2"/>
   <vehicle id="vehicle-32" type="passenger" color="Yellow" depart="0.32" route="trip-32"/>

   <route id="trip-33" color="Magenta" edges="88679040 203971499#0 136413965#0 667410648 169453890#0 145345146#0 169453895 169453894 22949651 164158186 34998404#0 34998404#3 543531546#0 543524593 925248670#0 543524596#0 22598768#0 24664558 23393212#0 23393212#1 23393212#2 24594310#0 24594310#1"/>
   <vehicle id="vehicle-33" type="passenger" color="Yellow" depart="0.33" route="trip-33"/>

   <route id="trip-34" color="Magenta" edges="8196629#4 8196629#5 9823971#0 9823971#1 9823971#2 9823971#3 857811041#0 51081171#0 51081171#1 51081171#2 906649715 751168040#0 751168040#1 5667174#0 5667174#2 37347656 219018758#0 32011636#0 51857159 219098056 32064260#0 32064260#5 32064261 541566703#0 4394727#0 4394727#1 4394727#2 612185916#0 154755082#0 980116966 -154755073#3"/>
   <vehicle id="vehicle-34" type="passenger" color="Yellow" depart="0.34" route="trip-34"/>

   <route id="trip-35" color="Magenta" edges="41910184#0 41910184#1 241660955#19 241660955#22 241660955#23 241660955#27 28523868#1 28523868#4 28523868#5 28523868#10 -1086848625 -5015536#4 5015532#0 5015532#2 5015534#0 5015534#1 -5015534#1 -5015534#0"/>
   <vehicle id="vehicle-35" type="passenger" color="Yellow" depart="0.35" route="trip-35"/>

   <route id="trip-36" color="Magenta" edges="313981596 503415497#0 503415497#3 503415496 37705429#0 147549213 620340708 620340709#0 620340711#0 620340706#0 28889303#1 180723490 180723489#0 180723491#0 620340714#0 154743411#0 620340713 620340716 501460458#0 110967368#0 109539742#0 109539742#1 4391001#0 303245743 51348112#0 374831953#0 303245744 51348111 252773097 623090133#2 203486082 200763473 33386769#0 33444803#0 39606300 33302833 147144449 5667165#0 48591706#0 48591706#1 204025234#0 204025234#1 48587086#1 1075393377 100132117 30743982 44037603#0 -30081449#2 -30081449#0 30078887 30081449#1"/>
   <vehicle id="vehicle-36" type="passenger" color="Yellow" depart="0.36" route="trip-36"/>

   <route id="trip-37" color="Magenta" edges="480375808 1070283593 23393212#0 23393212#1 23393212#2 24594310#0 24594310#1 51827455#1 23016541#0 23016541#1 34998404#3 543531546#0 543531545#0 543531545#3 34999321#0 34999321#1 34999321#2 20185105 20187845#4 35029564#0 123355479#0 123355479#1 123355479#3 154502563 37637984 -173282740 150031197#6 150031197#8 8196620#0 8196620#1 37390741#0 37390741#3 32021100#0 32021100#1 32021100#3 218930183#0 -218930183#3 -219018760#1 -219098062#1 -32037433 38967914#0 38967914#2 38967914#3 38967914#4 -38967914#5 -38967914#3 -38967914#2 -38967914#1"/>
   <vehicle id="vehicle-37" type="passenger" color="Yellow" depart="0.37" route="trip-37"/>

   <route id="trip-38" color="Magenta" edges="-942009653#1 644602341 32038320#0 942009661"/>
   <vehicle id="vehicle-38" type="passenger" color="Yellow" depart="0.38" route="trip-38"/>

   <route id="trip-39" color="Magenta" edges="288162959 63566383 202654192#0 154755109#1 219188460#0 219188460#2 219188460#4 219188460#5 219188460#6 315921078#0 315921078#1 154755110#0 86415860#0 86415860#1 88680005#1 203971499#0 203971501#0 10318488#0 10318488#2 4400322#0 39606301 189054412 78419224#1 401880207 1065789417 5667170#0 203486081 48654842 51348099 401880206 313982939 623090131 252773096#0 135788128#1 33814452#0 33814452#1 33814452#2 33814452#4 33814452#5 349603488#0 349603488#1 4391050#0 4391050#2 349603490#0 -4400202 110967368#0 4400197#0"/>
   <vehicle id="vehicle-39" type="passenger" color="Yellow" depart="0.39" route="trip-39"/>

   <route id="trip-40" color="Magenta" edges="64487932#1 -64487932#3 -64487932#0 28198797#1 28374726#0 28523862#0 28198821#0 28198821#5 28198821#6 32038051 583283168 254959489 289753604 27115122#0 27115122#1 583283156#0 583283156#1 255094956#0 824267465 255094955#0 255094955#2 2936806#0 113160347#0 113160347#2 255104326#0 254565590#0 1087202901 254565589 254565233 254565291#0 254565291#1 272288779#0 272288779#1"/>
   <vehicle id="vehicle-40" type="passenger" color="Yellow" depart="0.4" route="trip-40"/>

   <route id="trip-41" color="Magenta" edges="321899441#0 113160347#2 255104326#0 272288776#0 36590984#0 36590984#1 36590984#4 36590984#5 60342000#0 4071484#0 4071484#2 54609701 249483430 27404839#0 27404839#1 583283169 583283195 29319045 583283189 27115123#0 27115123#1 27115123#3 27115123#5 583283167#0 32038056#0 315360442#0 315360447"/>
   <vehicle id="vehicle-41" type="passenger" color="Yellow" depart="0.41" route="trip-41"/>

   <route id="trip-42" color="Magenta" edges="-26811074#1 -26811074#0 154755094#0 51534019#0 8225127 8225124#0 8225124#1 8225124#2 -8225110#1 -8225110#0 85470309#4 85470309#5 -8225144#0 -667410643#1 -667410643#0 -8225118#2 -8196629#9 -8196629#4 -8196629#3 -8196629#2 25102332 35029564#0 123355479#0 123355479#1 123355479#3 150031253#0 186608627 154502580#0 154502580#3 154502580#4"/>
   <vehicle id="vehicle-42" type="passenger" color="Yellow" depart="0.42" route="trip-42"/>

   <route id="trip-43" color="Magenta" edges="-10212091#3 23015813#0 329890956 667410646#1 27115018#0 198171539#0 198171539#2 169465734#1 169465735#1 501456678 169453887#0 402179132 37873574 175589820 315921077#0 315921077#1 23015860#0 23015860#2 63589540 301750521 23015861#0 44037603#0 44037603#1 32233474#0 142518656#1 23914009#0 23914009#1 23914010#0"/>
   <vehicle id="vehicle-43" type="passenger" color="Yellow" depart="0.43" route="trip-43"/>

   <route id="trip-44" color="Magenta" edges="187965761#5 3065455 23800664 129861628#0 129861628#1 129861628#3 129833340#0 129833341#0 917044794#0 129833347 218723887 2829323#0 1072961179#0 32856811#0 32856811#3 751868780#0 28542897#1 135556213 4146734#0 321899440 25606747#0 113160346 36590984#5 60342000#0 4071484#0 4071484#2 54609701 249483430 27404839#0 27404839#1 583283169 583283195 4146869#0 583283185 -340337295#3 -340337295#0 -28523868#10 -28523868#9 -28523868#4 -28523868#3 -241660955#31 -241660955#25 -241660955#22 -241660955#21 -41910184#3 -41910184#0 -4999332#8 -4999332#7 4999332#7"/>
   <vehicle id="vehicle-44" type="passenger" color="Yellow" depart="0.44" route="trip-44"/>

   <route id="trip-45" color="Magenta" edges="-32064260#3 32064260#0 32064260#5 32064261 541566703#0 28523803#0 541566701 144935692#0 144935692#1 144935692#2 166234884 166222937#0 389193083#1 150031230 542512892#0 542512892#1 129833341#0 154755117#0 23800191#0 23800191#1 23800191#2 234546135 23800141 23800192 186646384#0 186646384#4 186646384#6 180723491#0 620340714#0 154743411#0 620340713 620340716 501460458#0 110967368#0 109539742#0 109539742#1 4391001#0 303245743 48456085#0 48456085#1 23567657#0 -23567657#1"/>
   <vehicle id="vehicle-45" type="passenger" color="Yellow" depart="0.45" route="trip-45"/>

   <route id="trip-46" color="Magenta" edges="309839859 129316657#1 129316656 30777828#0 30777828#1 1065789417 5667170#0 203486081 48654842 51348099 401880206 313982939 623090131 252773096#0 135788128#1 33814452#0 33814452#1 33814452#2 33814452#4 33814452#5 349603488#0 349603488#1 4391050#0 4391050#2 349603490#0 620340717#0 -620340716 -620340715 -154743411#2 -620340714#2 -180723491#1 -180723489#2 -180723490 -620340712#1 -28889303#0 -620340711#2 -620340709#2 -620340705 -147549213 -37705430#2 -36590980#2 8759465#0 8759465#3 8759465#6 5667157#0 4071776#0 4071776#2 4071776#3 165940517"/>
   <vehicle id="vehicle-46" type="passenger" color="Yellow" depart="0.46" route="trip-46"/>

   <route id="trip-47" color="Magenta" edges="130752272 -130752272 -7631407#1 24592789#0 -154874104 -176385764#1 -176385764#0 -154874107#2 -131959462#1 -391820861 -31901074 -33971538#1 -24592809 -372313445#1 -306387100 -33805058#1 24231208#0 206149607#0 51348105#0 51348105#1 950274727#0 135788128#1 33814452#0 33814452#1 33814452#2 33814452#4 33814452#5 349603488#0 349603488#1 4391050#0 4391050#2 349603490#0 -389119032 -4400205#2 6186310 4979109 213185325#0 213185325#1"/>
   <vehicle id="vehicle-47" type="passenger" color="Yellow" depart="0.47" route="trip-47"/>

   <route id="trip-48" color="Magenta" edges="39930301#2 667410675 667410674#0 -8196616#2 -8196616#0 667410671#0 8196629#0 8196629#2 8196629#3 8196629#4 8196629#5 8225118#0 667410643#0 667410643#1 8225144#0 8225144#1 23015554#0 23015554#1 -210039165#0 22873499#0"/>
   <vehicle id="vehicle-48" type="passenger" color="Yellow" depart="0.48" route="trip-48"/>

   <route id="trip-49" color="Magenta" edges="8196681#3 -8196681#3 -8196681#2 -43086693#1 -43086693#0 24449422 150031197#4 150031197#6 150031197#8 8196620#0 8196620#1 37390741#0 37390741#3 32021100#0 32021100#1 32021100#3 218930183#0 218930181 218895701 800616215#0 475663109#0 -149583694#2 -60966951 -27431130 -32038056#6 -28198821#8 -28198821#5 -28198821#4 130165205#0 130165205#2 130165207#0 130165207#3 -130165209#1 -241660955#31 -241660955#25 -241660955#22 -241660955#21 -241660955#18 -241660955#15 -241660955#14 -4045329#8 -4045329#5"/>
   <vehicle id="vehicle-49" type="passenger" color="Yellow" depart="0.49" route="trip-49"/>

   <route id="trip-50" color="Magenta" edges="-5004995#1 -5004995#0 5004995#0 5004995#1 -4999337#1 32021843#3 51857078#0 51857078#3 160312590#0 160312590#1 160312590#2 322456246#0 322456246#1 322456248#0 322456245 322456250#0 150031245#0 4146205#0 255094956#0 824267465 255094955#0 255094955#2 2936806#0 113160347#0 113160347#2 255104326#0 51681577#1 321451886 4895018#0 -629582672#1 -206782858#4 -206782858#3 -206782858#2 -218408988#1 4390895#0 -8759465#8 -8759465#5 -8759465#2 36590980#0 37705430#0 147549213 620340708 620340709#0 620340711#0 620340706#0 28889303#1 180723490 180723489#0 180723491#0 620340714#0 154743411#0 620340713 620340716 501460458#0 110967368#0 109539742#0 109539742#1 4391001#0 303245743 51348112#0 374831953#0 303245744 1065789419 206149609#0 252773092"/>
   <vehicle id="vehicle-50" type="passenger" color="Yellow" depart="0.5" route="trip-50"/>

   <route id="trip-51" color="Magenta" edges="-32021849#0 166603924#0 166603924#5 609569104#0 4004111#0 4004111#2 682624621#0 902142186 5004993#0 5004993#2 173492580#0 173492580#2 173492580#3 41910184#0 41910184#1 -241660955#18 -241660955#15 -241660955#14 41910185#0 41910185#5 41910185#6 41910185#7 -4145594#2"/>
   <vehicle id="vehicle-51" type="passenger" color="Yellow" depart="0.51" route="trip-51"/>

   <route id="trip-52" color="Magenta" edges="5005001#0 4999332#3 4999332#5 4999332#7 4999332#8 41910184#0 41910184#1 241660955#19 241660955#22 241660955#23 241660955#27 130165209#1 130165208#0 130165208#1 37331979 28523862#0 28198821#0 28198821#5 28198821#6 32038056#0 27431130 60966951 149583694#0 908924988#0 32324543#0 28523803#0 541566701 144935692#0 144935692#1 144935692#2 167324659#0 55940134#0 186463490 930736467 930736468 835792564 930736464 930736465 154755102#0 154755102#1 154755102#2 -8096211#2 150031207#8 23493261#0 28542995#0 303244432#0 303244432#1 734784830#0 109063043 23493260#0 23493260#4 23493260#5 1065802294 303244426 768603506 4400319 48587087 48587086#0 48587086#1 1075393377 100132117 30743982 44037603#0 44037603#1 32233474#0 142518656#1 23914009#0 23914009#1 23914009#2 24037280 82548195#0 373038379 154755092#0 23493807#0 1063103289 -133872754"/>
   <vehicle id="vehicle-52" type="passenger" color="Yellow" depart="0.52" route="trip-52"/>
