<?xml version="1.0"?>

<routes> <!-- The opening tag -->

   <!-- Vehicle types -->
   <vType id="passenger" length="5.0" width="2.0" maxSpeed="70.0" accel="2.6" decel="4.5" sigma="0.5"/>

   <!-- Routes + associated vehicles & flows -->
   <route id="trip-0" color="Magenta" edges="130147329#3 130147329#5 -863400417#0 -902175298#4 -902175298#1 -902175298#0 -130165216#2 28198821#0 28198821#5 28198821#6 32038051 583283168 254959489 289753604 27115122#0 27115122#1 583283156#0 583283156#1 255094956#0 824267465 255094955#0 255094955#2 2936806#0 113160347#0 113160347#2 255104326#0 51681577#1 321451886 4895018#0 -629582672#1 -206782858#4 -206782858#3 -206782858#2 -218408988#1 4390895#0 -8759465#8 -8759465#5 -8759465#2 36590980#0 37705430#0 147549213 620340708 620340709#0 620340711#0 620340706#0 28889303#1 180723490 180723489#0 180723491#0 620340714#0 154743411#0"/>
   <vehicle id="vehicle-0" type="passenger" color="Yellow" depart="0.0" route="trip-0"/>

   <route id="trip-1" color="Magenta" edges="-4145594#2 -4145594#1 4145594#0 4145594#2 41910185#8 513372262 28753431 -64487932#12 -64487932#8 -64487932#7 -64487932#6 -64487932#3 -64487932#0 28198797#1 28374726#0 28523862#0 28198821#0 28198821#5 28198821#6 32038056#0 27431130 60966951 149583694#0 908924988#0 32324543#0 28523803#0 541566701 144935692#0 144935692#1 144935692#2 167324659#0 55940134#0 186463490 930736467 930736468 835792564 930736464 930736465 154755102#0 154755102#1 154755102#2 -8096211#2 150031207#8 23493261#0 28542995#0 303244432#0 303244432#1 734784830#0 109063043 23493260#0 23493260#4 23493260#5 1065802294 303244426 768603506 4400319 48587087 48587086#0 48587086#1 1075393377 100132117 30743982 44037603#0 44037603#1 32233474#0 142518656#1 23914009#0 23914009#1 23914009#2 288620099 4537892#0"/>
   <vehicle id="vehicle-1" type="passenger" color="Yellow" depart="0.01" route="trip-1"/>

   <route id="trip-2" color="Magenta" edges="-37390741#2 37390741#0 37390741#3 32021100#0 32021100#1 32021100#3 218930183#0 218930181 218895701 800616215#0 475663109#0 908924988#0 32324543#0 541566702#0 28523795#0 4004115#0 36590986#1 751868780#0 28542897#1 135556213 322456247 322456251#0 27404830#0 32857154 322456249#2 322456244#3 322456244#9 584423880#0 4004111#0 4004111#2 682624621#0 902142186 -5004995#3 -5004995#2 -4999337#1"/>
   <vehicle id="vehicle-2" type="passenger" color="Yellow" depart="0.02" route="trip-2"/>

   <route id="trip-3" color="Magenta" edges="667410646#1 4534554#0 4534554#1 10212091#0 10212091#1 10212091#2 10212091#3 20187845#0 20187845#2 20187845#4 35029564#0 123355479#0 123355479#1 123355479#3 150031253#0 186608627 154502580#0 154502580#3"/>
   <vehicle id="vehicle-3" type="passenger" color="Yellow" depart="0.03" route="trip-3"/>

   <route id="trip-4" color="Magenta" edges="70272507#0 9207805#0 -8759465#5 -8759465#2 36590980#0 37705430#0 147549213 620340708 620340709#0 620340711#0 620340706#0 28889303#1 180723490 180723489#0 180723491#0 620340714#0 154743411#0 620340713 620340716 501460458#0 110967368#0 109539742#0 109539742#1 4391001#0 303245743 51348112#0 374831953#0 303245744 1065789419 206149609#0 252773092 -303245745 -751197246 33805058#0 306387100 372313445#0 632980691 33971538#0 31901074 391820861 131959462#0 154874107#0 154874107#3 176385764#1 154874104 -24592789#2 -130752274#1 -130752273 -133872755 133872755"/>
   <vehicle id="vehicle-4" type="passenger" color="Yellow" depart="0.04" route="trip-4"/>

   <route id="trip-5" color="Magenta" edges="5015544#0 5015543#0 5015543#1 5015543#2 5015540#0 130165209#1 130165208#0 130165208#1 37331979 28523862#0 28198821#0 28198821#5 28198821#6 32038056#0 27431130 60966951 149583694#0 908924988#0 32324543#0 -541566703#2 -32064261 -32064260#8 -32064260#3 -219098056 219098057#0 206080341#0 206080341#3 -37347656 27404213#0 118041104#0 26704778#1 26704778#8 115106778#0 115106778#2 115106778#3 26784170#0 26784170#3 667410641#0 154502579#0 667410645 667410646#0 667410646#1 27115018#0 198171539#0 198171539#2 169465734#1 169465735#1 501456678 145345140#0 169453895 665030635#0 32902722#0 32902722#2 32902722#7 150039005#0 150039005#1 9872308#0"/>
   <vehicle id="vehicle-5" type="passenger" color="Yellow" depart="0.05" route="trip-5"/>

   <route id="trip-6" color="Magenta" edges="-315921078#0 -219188460#6 -219188460#5 -219188460#4 -219188460#3 219188460#2 219188460#4 219188460#5 219188460#6 315921078#0 315921078#1 154755110#0 86415848 175589819#0 175589819#1 175589819#2 154333001#1 169453888#0 145345137#0 1065802292 667410647 150039007#0 150039007#1 150039007#2 667410644#0 -8196629#9 -8196629#4 -8196629#3 -8196629#2 -8196629#0 -667410671#2 8196616#0 8196616#2 32011637#0"/>
   <vehicle id="vehicle-6" type="passenger" color="Yellow" depart="0.06" route="trip-6"/>

   <route id="trip-7" color="Magenta" edges="583283189 27115123#0 27115123#1 27115123#3 27115123#5 583283167#0 32038056#0 27431130 60966951 149583694#0 908924988#0 32324543#0 -541566703#2 -32064261 -32064260#8 -32064260#3 -219098056 219098057#0 206080341#0 206080341#3 -37347656 27404213#0 118041104#0 26704778#1 26704778#8 115106778#0 115106778#2 115106778#3 26784170#0 25150041#0 25150041#1 25150041#2 10212092#0 -20185105 24693845#0 24693834#0 24693834#1 23395143 -543531545#3 -543531545#2 543524593 925248670#0 543524596#0 22598768#0 51827455#0"/>
   <vehicle id="vehicle-7" type="passenger" color="Yellow" depart="0.07" route="trip-7"/>

   <route id="trip-8" color="Magenta" edges="154507079#0 154507079#1 568235965#0 32903236#0 32903236#1 31951782#0 31951782#1 636113045 23014984 22949994#0 22949994#1 52303559#0 52303559#1 52303559#2 32029471 -39764938#1 154755110#0 86415848 175589819#0 175589819#1 175589819#2 154333001#1 169453888#0 145345137#0 1065802292 667410647 150039007#0 150039007#1 150039007#2 667410644#0 9823971#0 9823971#1 9823971#2 9823971#3 857811041#0 51081171#0 51081171#1 51081171#2 906649715 751168040#0 751168040#1 115106777#0 115106777#2 4045160#0 4045160#2"/>
   <vehicle id="vehicle-8" type="passenger" color="Yellow" depart="0.08" route="trip-8"/>

   <route id="trip-9" color="Magenta" edges="22598768#0 51827455#0 51827455#1 23016541#0 23016541#1 34998404#3 543531546#0 543531545#0 543531545#3 34999321#0 34999321#1 34999321#2 20185105 -154507101 -8196629#0 -667410671#2 38574426#0 38574426#2 38574426#3 667410676#0 198358797#0 198358797#4 198358797#5 857814916#0 4391134 386265906#0 31694310 -26811074#3"/>
   <vehicle id="vehicle-9" type="passenger" color="Yellow" depart="0.09" route="trip-9"/>

   <route id="trip-10" color="Magenta" edges="-677243061 677243061 24564005 37705430#0 147549213 620340708 26166107#0 185767958#1-AddedOnRampEdge 185767958#1 36454807#0 313981599#0 313981598#0 150031205#1 145474195#0 4380937#0 541416569#0 150031262#0 219098058 198147972 154755124#0 186463493#0"/>
   <vehicle id="vehicle-10" type="passenger" color="Yellow" depart="0.1" route="trip-10"/>

   <route id="trip-11" color="Magenta" edges="22873499#1 22873540#2 22873540#3 22873540#4 22873540#5 23686956#0 23686956#1 23686956#2 -22873505#1 -22873505#0 200671461 533123612#0 203971501#0 10318488#0 10318488#2 4400322#0 39606301 189054412 78419224#1 401880207 1065789417 5667170#0 1065789418"/>
   <vehicle id="vehicle-11" type="passenger" color="Yellow" depart="0.11" route="trip-11"/>

   <route id="trip-12" color="Magenta" edges="23256227#0 23256227#3 -667410643#1 -667410643#0 -8225118#2 9823971#0 9823971#1 9823971#2 9823971#3 857811041#0 51081171#0 51081171#1 51081171#2 906649715 751168040#0 751168040#1 5667174#0 5667174#2 37347656 219018758#0 32011636#0 51857159 219098056 32064260#0 32064260#5 32064261 541566703#0 541566702#0 28523795#0 4004115#0 36590986#1 751868780#0 28542897#1 135556213 322456247 322456251#0 27404830#0 32857154 322456249#2 322456244#3 322456244#9 584423880#0 -609569104#0 -166603924#5 -166603924#4 32021849#0 32021849#2 32021850#0"/>
   <vehicle id="vehicle-12" type="passenger" color="Yellow" depart="0.12" route="trip-12"/>

   <route id="trip-13" color="Magenta" edges="-37331983#0 -941117494 -8196616#2 -8196616#0 38574426#0 38574426#2 38574426#3 94097290#0 115106778#2 154755116#0 154755116#2 667410678#0 51081171#0 51081171#1 51081171#2 906649715 751168040#0 751168040#1 5667174#0 5667174#2 37347656 219018758#0 32011636#0 51857159 219098056 32064260#0 32064260#5 32064261 541566703#0 -32324543#2 -908924988#2 -149583694#2 -60966951 -27431130 -32038056#6 32038051 583283168 254959489 -894292811 -265984914#1 265984914#0 894292811 583283189 27115123#0 27115123#1"/>
   <vehicle id="vehicle-13" type="passenger" color="Yellow" depart="0.13" route="trip-13"/>

   <route id="trip-14" color="Magenta" edges="22873507#1 22873507#3 22873507#4 187240666#0 667410647 150039007#0 150039007#1 150039007#2 667410644#0 -8196629#9 -8196629#4 -8196629#3 -8196629#2 25102332 35029564#0 123355479#0 123355479#1 123355479#3 154502563 37637984 -173282740 150031197#6 150031197#8 917044797#0 917044797#1 917044797#2 150031197#1 150031197#2 150031197#3 150031197#4"/>
   <vehicle id="vehicle-14" type="passenger" color="Yellow" depart="0.14" route="trip-14"/>

   <route id="trip-15" color="Magenta" edges="51348102#0 252773092 -303245745 206149607#0 51348105#0 51348105#1 950274727#0 159281728#0 252773097 623090133#2 203486082 200763473 33386769#0 33444803#0 39606300 33302833 147144448 23568396#2 10318490#0 203971501#0 727302499 4400318#0 4400318#2"/>
   <vehicle id="vehicle-15" type="passenger" color="Yellow" depart="0.15" route="trip-15"/>

   <route id="trip-16" color="Magenta" edges="-130147329#5 -130147329#4 130147382#0 130147382#2 130147382#3 130147382#4 28523862#0 28198821#0 28198821#5 28198821#6 32038056#0 27431130 60966951 149583694#0 908924988#0 32324543#0 -541566703#2 -32064261 -32064260#8 -32064260#3 -219098056 219098057#0 206080341#0 206080341#3 -37347656 27404213#0 118041104#0 26704778#1 26704778#8 115106778#0 115106778#2 115106778#3 26784170#0 26784170#3 667410641#0 154502579#0 667410645 667410646#0 667410646#1 4534554#0 4534554#1 369767417 23015817 22598789 37744760 23015816#0 23015816#2 543524596#4 480054079 9872533#0 9872533#1 22598774 32011876#0 32011876#1 23013527#0 23013527#1"/>
   <vehicle id="vehicle-16" type="passenger" color="Yellow" depart="0.16" route="trip-16"/>

   <route id="trip-17" color="Magenta" edges="4400309 40236119 33469672 33444801 370457083 33444803#0 39606300 33302833 147144448 23568396#2 10318490#0 136413965#0 667410648 145345141#0 1065802292 667410647 150039007#0 150039007#1 150039007#2 667410644#0 9823971#0 9823971#1 9823971#2 9823971#3 857811041#0 51081171#0 51081171#1 51081171#2 906649715 751168040#0 751168040#1 115106777#0 115106777#2 4045160#0 4045160#2 4045160#3 42999417#0 42999417#3 42999417#6 32021100#0 32021100#1 32021100#3 218930183#0 -218930183#3 -219018760#1 -219098062#1 -32037433 -27431134 -8096208#1 27431133#0 524764427#0 27290865#0 524696738 188676296#0 188676296#5 188676296#9 188676296#12 -122313834#2 -122313834#1 -122313834#0"/>
   <vehicle id="vehicle-17" type="passenger" color="Yellow" depart="0.17" route="trip-17"/>

   <route id="trip-18" color="Magenta" edges="169453895 665030635#0 32902722#0 32902722#2 32902722#7 150039005#0 150039005#1 9872308#0 150039007#0 150039007#1 150039007#2 667410644#0 9823971#0 9823971#1 9823971#2 9823971#3 857811040 34896249#1 26784646#1 386265906#0 37331980#0 37331980#5 219098055#0 186463493#0 150031203#0 150031227 150031230 542512892#0 542512892#1"/>
   <vehicle id="vehicle-18" type="passenger" color="Yellow" depart="0.18" route="trip-18"/>

   <route id="trip-19" color="Magenta" edges="32021843#3 51857078#0 51857078#3 160312590#0 160312590#1 160312590#2 322456246#0 322456246#1 322456248#0 322456245 322456250#0 150031245#0 4146205#0 255094956#0 824267465 255094955#0 255094955#2 2936806#0 113160347#0 113160347#2 255104326#0 51681577#1 321451886 4895018#0 -629582672#1 -206782858#4 -206782858#3 -206782858#2 -218408988#1 4390895#0 -8759465#8 -8759465#5 -8759465#2 36590980#0 37705430#0 147549213 620340708 620340709#0 620340711#0 620340706#0 -28889303#0 -620340711#2"/>
   <vehicle id="vehicle-19" type="passenger" color="Yellow" depart="0.19" route="trip-19"/>

   <route id="trip-20" color="Magenta" edges="-69366482 69366483 23567938 109063043 23493260#0 23493260#4 23493260#5 1065802294 303244426 768603506 48587065#0 48587065#1 146789540#0 146789540#1 768602479 25071937 4400322#0 39606301 189054412 78419224#1 401880207 1065789417 5667170#0 203486081 48654842 51348099 401880206 313982939 623090131 252773096#0 135788128#1 33814452#0 33814452#1 33814452#2 33814452#4 33814452#5 349603488#0 349603488#1 4391050#0 4391050#2 349603490#0 620340717#0 -620340716 -620340715 -154743411#2 -620340714#2 -180723491#1 -180723489#2 -180723490 -620340712#1 -28889303#0 -620340711#2 -620340709#2 -620340705 -147549213 -37705430#2 -36590980#2 8759465#0 8759465#3 -9207805#2"/>
   <vehicle id="vehicle-20" type="passenger" color="Yellow" depart="0.2" route="trip-20"/>

   <route id="trip-21" color="Magenta" edges="187240666#0 667410647 150039007#0 150039007#1 150039007#2 667410644#0 154502579#0 667410645 667410646#0 -329890956 329890957"/>
   <vehicle id="vehicle-21" type="passenger" color="Yellow" depart="0.21" route="trip-21"/>

   <route id="trip-22" color="Magenta" edges="349914644 23572047 204177817 7976570 40236578#0 206149607#0 51348105#0 51348105#1 950274727#0 159281728#0 252773097 623090133#2 203486082 200763473 33386769#0 33444803#0 39606300 33302833 147144448 23568396#2 10318490#0 136413965#0 667410648 169453890#0 145345146#0 169453895 169453894 22949651 164158186 34998404#0 34998404#3 543531546#0 543531545#0 543531545#3 -543531545#3 -543531545#2"/>
   <vehicle id="vehicle-22" type="passenger" color="Yellow" depart="0.22" route="trip-22"/>

   <route id="trip-23" color="Magenta" edges="4882044#2 4882044#0 4882044#1 4882048#0 36590984#4 36590984#5 60342000#0 4071484#0 4071484#2 54609701 249483430 27404839#0 27404839#1 583283169 583283195 29319045 583283189 27115123#0 27115123#1 27115123#3 27115123#5 583283167#0 32038056#0 27431130 60966951 149583691 -800616215#1 -218895701 -218895699 -218930183#3 -32021100#6 -32021100#2"/>
   <vehicle id="vehicle-23" type="passenger" color="Yellow" depart="0.23" route="trip-23"/>

   <route id="trip-24" color="Magenta" edges="188676296#22 188676296#23 188676296#24 -188676296#24 -188676296#23 -188676296#22 -188676296#21 -188676296#19 -188676296#16 -188676296#13 -188676296#12 -188676296#11 -188676296#8 -188676296#2 -942009653#1 644602341 27290861 27290858#0 8096208#0 27431134 32037433 219098062#0 617632250 32020965 219018762#2 219018761#0 206080341#0 206080341#3 -37347656 27404213#0 118041104#0 26704778#1 26704778#8 115106778#0 115106778#2 115106778#3 26784170#0 26784170#3 667410641#0 154502579#0 667410645 667410646#0 667410646#1 27115018#0 198171539#0 198171539#2 169465734#1 169465735#1 501456678 169453887#0 402179132 37873574 175589820 315921077#0 315921077#1 23015860#0 23015860#2 63589540 301750521 23015861#0 44037603#0 44037603#1 32233474#0 142518656#1 23914009#0 23914009#1 23914009#2 24037280"/>
   <vehicle id="vehicle-24" type="passenger" color="Yellow" depart="0.24" route="trip-24"/>

   <route id="trip-25" color="Magenta" edges="154755073#4 -154755073#4 -154755073#3 -154755073#2 4401673#5 4401673#7 4401673#8 612188894#1 612188894#3 -144935692#1 -144935692#0 -541566701 -28523803#2 -541566703#2 -32064261 -32064260#8 -32064260#3 -219098056 219098057#0 206080341#0 206080341#3 -37347656 27404213#0 210836330#0 210836330#6 150031260#0 150031260#1 667410675 667410674#0 32011637#0 667410670#0 150031253#0 186608627 154502580#0 154502580#3 154502580#4 154502580#5 37276378#0 150031250#0 1082834947 150031257#0"/>
   <vehicle id="vehicle-25" type="passenger" color="Yellow" depart="0.25" route="trip-25"/>

   <route id="trip-26" color="Magenta" edges="620340714#0 154743411#0 620340713 620340716 501460458#0 110967368#0 109539742#0 109539742#1 4391001#0 303245743 51348112#0 374831953#0 303245744 51348111 252773097 623090133#2 203486082 203486081 48654842 51348099 4537862#0 24231978 8672022#0 8672022#1 8672022#3"/>
   <vehicle id="vehicle-26" type="passenger" color="Yellow" depart="0.26" route="trip-26"/>

   <route id="trip-27" color="Magenta" edges="188676296#21 188676296#22 188676296#23 188676296#24 -188676296#24 -188676296#23 -188676296#22 -188676296#21 -188676296#19 -188676296#16 -188676296#13 -188676296#12 -188676296#11 -188676296#8 -188676296#2 -942009653#1 644602341 27290861 27290858#0 8096208#0 27431134 32037433 219098062#0 617632250 32020965 219018762#2 219018761#0 206080341#0 206080341#3 -37347656 27404213#0 118041104#0 26704778#1 26704778#8 115106778#0 115106778#2 115106778#3 26784170#0 26784170#3 667410641#0 9823971#0 9823971#1 9823971#2"/>
   <vehicle id="vehicle-27" type="passenger" color="Yellow" depart="0.27" route="trip-27"/>

   <route id="trip-28" color="Magenta" edges="34998404#3 543531546#0 543531545#0 543531545#3 34999321#0 34999321#1 34999321#2 20185105 -154507101 -8196629#0 -667410671#2 38574426#0 38574426#2 38574426#3 94097290#0 115106778#2 154755116#0 154755116#2 667410678#0 51081171#0 51081171#1 51081171#2 906649715 751168040#0 751168040#1 5667174#0 5667174#2 37347656 219018758#0 32011636#0 51857159 219098056 32064260#0 32064260#5 32064261 541566703#0 541566702#0 28523795#0 4004115#0 36590986#1 751868780#0 28542897#1 135556213"/>
   <vehicle id="vehicle-28" type="passenger" color="Yellow" depart="0.28" route="trip-28"/>

   <route id="trip-29" color="Magenta" edges="37191915#2 -37191915#2 -37191915#1 -37191915#0 -4146756#0 130147381 130147382#4 28523862#0 28198821#0 28198821#5 28198821#6 32038051 583283168 254959489 289753604 27115122#0 27115122#1 583283156#0 583283156#1 255094956#0 824267465 255094955#0 255094955#2 2936806#0 113160347#0 113160347#2 255104326#0 51681577#1 321451886 4895018#0 -629582672#1 -206782858#4 -206782858#3 -206782858#2 -218408988#1 4390895#0 -8759465#8 -8759465#5 -8759465#2 36590980#0 37705430#0 147549213 620340708 620340709#0 620340711#0 620340706#0 28889303#1 180723490 180723489#0 180723491#0 620340714#0 154743411#0 620340713 620340716 501460458#0 4400202 -389119032 -4400205#2 4400205#0"/>
   <vehicle id="vehicle-29" type="passenger" color="Yellow" depart="0.29" route="trip-29"/>

   <route id="trip-30" color="Magenta" edges="877575835 877575836 32029116#4 175588458#2 52303559#0 52303559#1 52303559#2 32029471 -39764938#1 154755110#0 86415848 175589819#0 175589819#1 175589819#2 154333001#1 169453888#0 145345137#0 1065802292 667410647 150039007#0 150039007#1 150039007#2 667410644#0 -8196629#9 -8196629#4 -8196629#3 -8196629#2 25102332 35029564#0 123355479#0 123355479#1 123355479#3 154502563 37637984 -173282740 150031197#6 150031197#8 917044797#0 917044797#1 917044797#2 150031197#1 150031197#2 261545399 43086695#1 43086693#0"/>
   <vehicle id="vehicle-30" type="passenger" color="Yellow" depart="0.3" route="trip-30"/>

   <route id="trip-31" color="Magenta" edges="150031197#1 150031197#2 150031197#3 150031197#4 150031197#6 150031197#8 8196620#0 8196620#1 37390741#0 37390741#3 32021100#0 32021100#1 32021100#3 218930183#0 218930181 218895701 800616215#0 475663109#0 908924988#0 32324543#0 541566702#0 28523795#0 4004115#0 36590986#1 751868780#0 28542897#1 135556213 322456247 322456251#0 27404830#0 32857154 4882046#0 4882046#3 4882044#1 4882044#2"/>
   <vehicle id="vehicle-31" type="passenger" color="Yellow" depart="0.31" route="trip-31"/>

   <route id="trip-32" color="Magenta" edges="48587065#1 146789540#0 146789540#1 768602479 25071937 4400322#0 39606301 189054412 78419224#1 401880207 1065789417 5667170#0 200763473 4400455#0 4400455#1 4400455#3 4400456 4400450#0 4400450#1 64487982#0 64487982#1 64487982#2 -48456085#1 -48456085#0 51348112#0 4400448 569968836#0"/>
   <vehicle id="vehicle-32" type="passenger" color="Yellow" depart="0.32" route="trip-32"/>

   <route id="trip-33" color="Magenta" edges="583283156#1 255094956#0 824267465 150031245#0 47426157 135593540#0 399060413#0 399060413#1 947308251#0 467758206#0 115106779#0 -28523795#2 -541566702#2 -541566703#2 -32064261 -32064260#8 -32064260#3 -219098056 219098057#0 206080341#0 206080341#3 -37347656 4045160#0 4045160#2 4045160#3 42999417#0 42999417#3 42999417#6 28841605#0 -27431138#2 -27431138#1 150031225#0 4121461#0 4121461#2"/>
   <vehicle id="vehicle-33" type="passenger" color="Yellow" depart="0.33" route="trip-33"/>

   <route id="trip-34" color="Magenta" edges="37333602#4 383178036#0 383178036#1 383178034 150594021#0 150594021#3 4045164#0 4045164#5 115106778#0 115106778#2 115106778#3 26784170#0 26784170#3 667410641#0 8225118#0 667410643#0 667410643#1 8225144#0 8225144#1 23015554#0 23015554#1 23686955 23686956#0 23686956#1 23686956#2 22873507#0 22873507#1 22873507#3 22873507#4"/>
   <vehicle id="vehicle-34" type="passenger" color="Yellow" depart="0.34" route="trip-34"/>

   <route id="trip-35" color="Magenta" edges="917044790 122989592#0 542512895 326986553 23493176#0 154755112#0 154755112#3 154755096 -8225101 -154755102#3 -154755102#1 -154755102#0 -930736465 -930736464 -835792564 -930736468 -930736467 -186463490 -55940134#2 -167324659#2 -144935692#2 -144935692#1 -144935692#0 -541566701 -28523803#2 -32324543#2 -908924988#2 -149583694#2 -60966951 -27431130 -32038056#6 -28198821#8 -28198821#5 -28198821#4 130165205#0 130165205#2 28523856#0 32038441#0 -28198797#1 64487932#0 64487932#1 64487932#4 64487932#7 64487932#8 64487932#9 64487932#13 4145595#0 -41910185#8 -4145594#2 -4145594#1 -888173077"/>
   <vehicle id="vehicle-35" type="passenger" color="Yellow" depart="0.35" route="trip-35"/>

   <route id="trip-36" color="Magenta" edges="24230765#0 -24230765#1 8672022#3 37276372#0 33805058#0 306387100 -306387100 -33805058#1 24231208#0 206149607#0 51348105#0 51348105#1 950274727#0 159281728#0 252773097 623090133#2 203486082 200763473 33386769#0 33444803#0 39606300 33302833 147144448 23568396#2 10318490#0 136413965#0 667410648 145345141#0 1065802292 667410647 150039007#0 150039007#1 150039007#2 667410644#0 -8196629#9 -8196629#4 10212092#0"/>
   <vehicle id="vehicle-36" type="passenger" color="Yellow" depart="0.36" route="trip-36"/>

   <route id="trip-37" color="Magenta" edges="863400417#6 863400417#10 863400417#11 -188676296#8 -188676296#2 -942009653#1 644602341 32038320#0 942009661 32038319#1 148045530#1 32021298#0 32021298#1 583283159 23429231#0 23429231#1 23429231#2 32038056#0 27431130 60966951 149583694#0 908924988#0 32324543#0 28523803#0 541566701 144935692#0 144935692#1 -144935692#1 -144935692#0 -541566701 144935690"/>
   <vehicle id="vehicle-37" type="passenger" color="Yellow" depart="0.37" route="trip-37"/>

   <route id="trip-38" color="Magenta" edges="42999417#3 42999417#6 32021100#0 32021100#1 32021100#3 218930183#0 -218930183#3 -219018760#1 -219098062#1 -32037433 -27431134 -8096208#1 -424487736#2 4119602#0 4119602#4 144622875#0 942009664#0 319929498#2 319929498#5 -319929498#7"/>
   <vehicle id="vehicle-38" type="passenger" color="Yellow" depart="0.38" route="trip-38"/>

   <route id="trip-39" color="Magenta" edges="130160206#0 130160206#1 800951534#0 800951533#2 122313834#1 122313834#2 -188676296#12 -188676296#11 -188676296#8 -188676296#2 -942009653#1 644602341 27290861 27290858#0 -424487736#2"/>
   <vehicle id="vehicle-39" type="passenger" color="Yellow" depart="0.39" route="trip-39"/>

   <route id="trip-40" color="Magenta" edges="22949651 164158186 34998404#0 34998404#3 543531546#0 543531545#0 543531545#3 34999321#0 34999321#1 34999321#2 20185105 20187845#4 35029564#0 123355479#0 123355479#1 123355479#3 154502563 37637984 -173282740 150031197#6 150031197#8 8196620#0 8196620#1 37390741#0 37390741#3 32021100#0 32021100#1 32021100#3 218930183#0 218930181 218895701 800616215#0 475663109#0 -149583694#2 -60966951 -27431130 -32038056#6 -28198821#8 -28198821#5 -28198821#4 130165205#0 130165205#2 130165207#0 130165207#3 -130165209#1 -241660955#31 -241660955#25 -241660955#22 -241660955#21 -241660955#18 -241660955#15 -241660955#14 -241660955#11 -241660955#8 -241660955#7 -241660955#6 -241660955#5 -241660955#1 31800061#0 31800061#1 -241678511#3 -241678511#2 -31800062#2 -31800062#0 241678519#0"/>
   <vehicle id="vehicle-40" type="passenger" color="Yellow" depart="0.4" route="trip-40"/>

   <route id="trip-41" color="Magenta" edges="-1010641521#1 -154511600#0 88235135#0 32007885#2 32008097#0 479545489#0 479545489#1 169455026 187070212#0 37873571#0 37873571#1 37873571#2 187070213#0 402179132 37873574 175589820 315921077#0 315921077#1 154755110#0 86415848 175589819#0 175589819#1 175589819#2 154333001#1 169453888#0 145345137#0 1065802292 667410647 150039007#0 150039007#1 150039007#2 667410644#0 9823971#0 9823971#1 9823971#2 9823971#3 857811041#0 51081171#0 51081171#1 51081171#2 906649715 751168040#0 751168040#1 115106777#0 115106777#2 27404213#0 118041104#0 26704778#1 26704778#8 115106778#0 115106778#2 115106778#3 26784170#0 26784170#3"/>
   <vehicle id="vehicle-41" type="passenger" color="Yellow" depart="0.41" route="trip-41"/>

   <route id="trip-42" color="Magenta" edges="23567938 -109063044#1 8225102 51718611#0 51718611#1 -165515970#1 -165515970#0 -8225101 -154755102#3 -154755102#1 -154755102#0 -930736465 -930736464 -835792564 -930736468 -930736467 -186463490 -55940134#2 -167324659#2 -144935692#2 -144935692#1 -144935692#0 -541566701 -28523803#2 541566702#0 28523795#0 4004115#0 36590986#1 751868780#0 28542897#1 135556213 4146734#0 321899440 25606747#0 113160346 36590984#5 60342000#0 4071484#0 4071484#2 54609701 249483430 27404839#0 -27404896"/>
   <vehicle id="vehicle-42" type="passenger" color="Yellow" depart="0.42" route="trip-42"/>

   <route id="trip-43" color="Magenta" edges="349914645#2 23571566#0 159281728#0 252773097 623090133#2 203486082 200763473 33386769#0 33444803#0 39606300 33302833 147144448 23568396#2 10318490#0 136413965#0 667410648 169453890#0 145345146#0 169453895 169453894 22949651 164158186 34998404#0 34998404#3 543531546#0 543524593 925248670#0 543524596#0 22598768#0 51827455#0"/>
   <vehicle id="vehicle-43" type="passenger" color="Yellow" depart="0.43" route="trip-43"/>

   <route id="trip-44" color="Magenta" edges="4004116#2 4071776#5 4071776#7 1071321411#0 542512889#0 4071778#0 115106779#0 -28523795#2 -541566702#2 -32324543#2 -908924988#2 -149583694#2 -60966951 -27431130 -32038056#6 32324544#0 4045315#0 4045315#1 -258538642 -37191908#1 -130147329#5 -130147329#4 -130147329#2 -130147329#1 -130147329#0"/>
   <vehicle id="vehicle-44" type="passenger" color="Yellow" depart="0.44" route="trip-44"/>

   <route id="trip-45" color="Magenta" edges="824267465 150031245#0 47426157 135593540#0 399060413#0 399060413#1 947308251#0 467758206#0 406217856#0 1072955734#0 1072955734#1 28542886#0 28542886#3 166222937#0 389193083#1 150031230 542512892#0 542512892#1 150031207#0 150031207#3 150031207#5 150031207#8 23493261#0 28542995#0 303244432#0 303244432#1 734784830#0 109063043 23493260#0 23493260#4 23493260#5 1065802294 303244426 768603506 48587065#0 48587065#1 146789540#0 146789540#1 768602479 25071937 4400322#0 39606301 189054412 78419225#0"/>
   <vehicle id="vehicle-45" type="passenger" color="Yellow" depart="0.45" route="trip-45"/>

   <route id="trip-46" color="Magenta" edges="31864813#4 31864813#6 31864813#7 37144831#0 4137092#0 156593389#1 156593389#4 156593389#6 156593389#7 188676296#17 188676296#21 188676296#22 188676296#23 188676296#24 448639017 264613996#0 257526882#0"/>
   <vehicle id="vehicle-46" type="passenger" color="Yellow" depart="0.46" route="trip-46"/>

   <route id="trip-47" color="Magenta" edges="4045161#1 383178036#0 383178036#1 383178034 150594021#0 150594021#3 4045164#0 4045164#5 115106778#0 115106778#2 115106778#3 26784170#0 26784170#3 667410641#0 154502579#0 667410645 667410646#0 667410646#1 4534554#0 4534554#1 369767417 23015817 22598789 37744760 23015816#0 23015816#2 34998404#0 34998404#3 543531546#0"/>
   <vehicle id="vehicle-47" type="passenger" color="Yellow" depart="0.47" route="trip-47"/>

   <route id="trip-48" color="Magenta" edges="31691655 -213185325#8 -213185325#6 -213185325#5 -213185325#4 -213185325#3 -213185325#2 -213185325#0 213185326#0 4400205#0 4400205#3 -4400202 110967368#0 109539742#0 109539742#1 4391001#0 303245743 51348112#0 374831953#0 303245744 51348111 252773097 623090133#2 203486082"/>
   <vehicle id="vehicle-48" type="passenger" color="Yellow" depart="0.48" route="trip-48"/>

   <route id="trip-49" color="Magenta" edges="189054412 78419225#0 33444803#0 39606300 33302833 147144448 23568396#2 10318490#0 136413965#0 667410648 145345141#0 1065802292 667410647 150039007#0 150039007#1 150039007#2 667410644#0 9823971#0 9823971#1 9823971#2 9823971#3 857811041#0 51081171#0 51081171#1 51081171#2 906649715 751168040#0 751168040#1 115106777#0 115106777#2 4045160#0 4045160#2 4045160#3 42999417#0 42999417#3 42999417#6 32021100#0 32021100#1 32021100#3 218930183#0 -218930183#3 -219018760#1 -219098062#1 -32037433 -27431134 -8096208#1 -424487736#2 4119602#0 4119602#4 144622875#0 942009664#0"/>
   <vehicle id="vehicle-49" type="passenger" color="Yellow" depart="0.49" route="trip-49"/>

   <route id="trip-50" color="Magenta" edges="-241660955#8 -241660955#7 241660955#7 241660955#8 241660955#9 241660955#12 241660955#15 241660955#16 241660955#19 241660955#22 241660955#23 241660955#27 28523868#1 28523868#4 28523868#5 28523868#10 340337295#0 340337295#1 265984914#0 894292811 289753604 27115122#0 27115122#1 583283156#0 583283156#1 255094956#0 824267465 255094955#0 255094955#2 2936806#0 113160347#0 113160347#2 255104326#0 51681577#1 321451886 4895018#0 -629582672#1 -206782858#4 -206782858#3 -206782858#2 -218408988#1 4390895#0 -8759465#8 -8759465#5 -8759465#2 36590980#0 -24564005 -677243061"/>
   <vehicle id="vehicle-50" type="passenger" color="Yellow" depart="0.5" route="trip-50"/>
