<?xml version="1.0" encoding="UTF-8"?>

<!-- generated on Wed Oct 26 13:27:10 2022 by Eclipse SUMO duarouter Version 1.4.0
<configuration xmlns:xsi="http://www.w3.org/2001/XMLSchema-instance" xsi:noNamespaceSchemaLocation="http://sumo.dlr.de/xsd/duarouterConfiguration.xsd">

    <input>
        <net-file value="/home/mohaimin/Downloads/erlangen.net.xml"/>
        <route-files value="trips.trips.xml"/>
    </input>

    <output>
        <output-file value="erlangen_1000.rou.xml"/>
        <alternatives-output value="erlangen_1000.rou.alt.xml"/>
    </output>

    <time>
        <begin value="0"/>
        <end value="500.0"/>
    </time>

    <report>
        <no-warnings value="true"/>
        <ignore-errors value="true"/>
        <no-step-log value="true"/>
    </report>

</configuration>
-->

<routes xmlns:xsi="http://www.w3.org/2001/XMLSchema-instance" xsi:noNamespaceSchemaLocation="http://sumo.dlr.de/xsd/routes_file.xsd">
    <vType id="passenger" vClass="passenger"/>
    <vehicle id="0" type="passenger" depart="0.00">
        <route edges="4047241 4797872 4797871 4006668 126606716 113939242#0 113939242#1 -25398494#0 4006693#0 -23605595 -8403007 -29900564#1 -8402998#2"/>
    </vehicle>
    <vehicle id="1" type="passenger" depart="0.05">
        <route edges="4319352#1 44069041#0 44069041#1 5931612 30350450#0 30350450#1 30350450#2 4006702#0 28613737 94344941 94344940#0"/>
    </vehicle>
    <vehicle id="2" type="passenger" depart="0.10">
        <route edges="5445204#2 -5445204#2 -5445204#1 113939242#1 -25398494#0 4006693#0"/>
    </vehicle>
    <vehicle id="3" type="passenger" depart="0.15">
        <route edges="-4006674#1 -4006682 32302591#1 32302591#2 32302591#3 32302591#4 32302591#5 33174302#0 33174302#1 4686970#0 4686970#1 122161381 30350448 8364476 30350450#0 30350450#1 30350450#2 4006702#0 4006702#1 4006702#2 -28269598"/>
    </vehicle>
    <vehicle id="4" type="passenger" depart="0.20">
        <route edges="3998613#0 -3998613#0 30357194 25472299 30350448 30350449 4400949 31982182#0 4047241 4797872 4797871 4006668 126606716 113939242#0 113939242#1 113939242#2 113939241"/>
    </vehicle>
    <vehicle id="5" type="passenger" depart="0.25">
        <route edges="-4006674#4 4006674#4 4006687 32270595 33174302#0 33174302#1 4686970#0 4686970#1 122161381 30350448 30350449 4047309 30751813 -35842306#1 -35842306#0 -4900741 -4900739#2 -4900739#1 -4900739#0"/>
    </vehicle>
    <vehicle id="6" type="passenger" depart="0.30">
        <route edges="-4006668 4006668 23339459 30405358#1 85355912 85355911#0 85355911#1 30405356 25472079 30405352 30350445 -33174302#1 -33174302#0 -32302591#5 -32302591#4 -32302591#3 -32302591#2 32302591#2"/>
    </vehicle>
    <vehicle id="7" type="passenger" depart="0.35">
        <route edges="33174302#1 4686970#0 4686970#1 122161381 30350448 30350449 4047309 30751813 -35842306#1 -35842306#0 -31777493#1 31777493#1"/>
    </vehicle>
    <vehicle id="8" type="passenger" depart="0.40">
        <route edges="30405356 5931612 30350450#0 30350450#1 30350450#2 4006702#0 31255203#0 -31241851#2 -31241851#1 -31241851#0 -31241848 31241834#1"/>
    </vehicle>
    <vehicle id="9" type="passenger" depart="0.45">
        <route edges="-32320329 -113939241 113939244#0 -25398494#0 -31401017#2 -31401017#1 4006688#0 4006688#1 4006688#2 4006688#3 4006688#4 29900561#0 29900561#1 32270595 -32302591#5"/>
    </vehicle>
    <vehicle id="10" type="passenger" depart="0.50">
        <route edges="-3013106#1 3013106#1 3013106#2 4319352#1 44069041#0 44069041#1 4400949 31982182#0 4047241 4797872 4797871 4006668 126606716 113939242#0 113939242#1 113939242#2 113939241 -37591481 -28269601 -4392769"/>
    </vehicle>
    <vehicle id="11" type="passenger" depart="0.55">
        <route edges="4047532 31401018 29900567 31401017#0 4006688#0 4006688#1 4006688#2 4006688#3 4006688#4 29900561#0 29900561#1 32270595 33174302#0 33174302#1 4686970#0 4686970#1 122161381 30350448 8364476 30350450#0 30350450#1 -3998643#2 -3998615#1 4006726#0"/>
    </vehicle>
    <vehicle id="12" type="passenger" depart="0.60">
        <route edges="-4006674#2 4006674#2 4006674#3 4006674#4 4006687 32270595 33174302#0 33174302#1 4686970#0 4686970#1 122161381 30350448 30350449 4047309 30751813 -35842306#1 -35842306#0 -31777493#1"/>
    </vehicle>
    <vehicle id="13" type="passenger" depart="0.65">
        <route edges="4047309 30751813 4047446#0 4047446#1 5931612 30350450#0 -3998645#2 -3998615#3"/>
    </vehicle>
    <vehicle id="14" type="passenger" depart="0.70">
        <route edges="4900043 4900041#1 4900041#2 4900041#3 4900041#0 -4900043 -4006702#1 -4006702#0 4319352#1 44069041#0 44069041#1 25472079 30405352 30350445 -33174302#1 -33174302#0 -32302591#5 -32302591#4 -32302591#3 -32302591#2 -32302591#1 4006682 4006674#1"/>
    </vehicle>
    <vehicle id="15" type="passenger" depart="0.75">
        <route edges="-31353573#1 -31353573#0 -33174302#1 -33174302#0 -29900565#3 -29900565#2 -29900565#1 -29900565#0 -4006690 --5558"/>
    </vehicle>
    <vehicle id="16" type="passenger" depart="0.80">
        <route edges="-28631632 28613727#1 -94344940#0 28768072 -28613737 4006702#1 4006702#2 -28269598 -4006703#1 4006705#1 4006705#2 31720632#0 31720632#1"/>
    </vehicle>
    <vehicle id="17" type="passenger" depart="0.85">
        <route edges="-3998643#1 4006726#1 4006726#2 -3998645#0 -3998612#0 30357194 25472299 30350448 30350449 4047309 30751813 4047446#0 25472129"/>
    </vehicle>
    <vehicle id="18" type="passenger" depart="0.90">
        <route edges="4006674#0 4006674#1 4006674#2 4006674#3 23605600#1"/>
    </vehicle>
    <vehicle id="19" type="passenger" depart="0.95">
        <route edges="-31241835#1 -31241816#3 31241851#0 31241851#1 31241851#2 -31255203#0 -4006702#0 -3013106#2 -3013106#1 -3013106#0 -3998612#2 -3998612#1 -4006725#1"/>
    </vehicle>
    <vehicle id="20" type="passenger" depart="1.00">
        <route edges="-28269601 28269601 37591481 -113939241 113939244#0 113939244#1 113939244#2 -126606716 23339459 30405358#1 85355912 85355911#0 85355911#1 30405356 5931612 30350450#0 30350450#1 30350450#2 4006702#0 4006702#1 4900043 4900041#1"/>
    </vehicle>
    <vehicle id="21" type="passenger" depart="1.05">
        <route edges="30357194 25472299 30350448 30350449 25472079 30405352 30350445 -33174302#1 -33174302#0 -32270595 -29900561#1 9643180"/>
    </vehicle>
    <vehicle id="22" type="passenger" depart="1.10">
        <route edges="4006691 -29900564#2 8403007 23605595 -4006693#0 25398494#0 113939244#1 113939244#2 -126606716 23339459 30405358#1"/>
    </vehicle>
    <vehicle id="23" type="passenger" depart="1.15">
        <route edges="3998612#0 3998612#1 3998612#2 3013106#0 3013106#1 3013106#2 4006702#0 4006702#1 4006702#2 -28269598 -4006703#1 4006705#1 4006705#2 31720632#0 -31720632#0"/>
    </vehicle>
    <vehicle id="24" type="passenger" depart="1.20">
        <route edges="4006683 4006674#2 4006674#3 4006674#4 4006687 32270595 33174302#0 33174302#1 4686970#0 4686970#1 122161381 30350448 8364476 30350450#0 30350450#1 30350450#2 4006702#0 31255203#0 31255203#1 31241838#0 -31241853#1"/>
    </vehicle>
    <vehicle id="25" type="passenger" depart="1.25">
        <route edges="-3998643#1 4006726#1 4006726#2 -3998645#0 -3998612#0 30357194 25472299 30350448 30350449 4400949 31982182#0 4047241 4797872 4797871 4006668 126606716 113939242#0 113939242#1 113939242#2 113939244#0"/>
    </vehicle>
    <vehicle id="26" type="passenger" depart="1.30">
        <route edges="-31241838#0 -31255203#1 -31255203#0 -4006702#0 4319352#1 44069041#0 44069041#1 4400949 31982182#0 4047241 4797872 4797871 4006668 126606716 113939242#0 5445204#1 5445204#2 5445204#3 -23570844#1"/>
    </vehicle>
    <vehicle id="27" type="passenger" depart="1.35">
        <route edges="-31241834#0 -31241835#1 -31241816#3 31241851#0 31241851#1 31241851#2 -31255203#0 -4006702#0 4319352#1 44069041#0 44069041#1 25472079 30405352 30350445 -33174302#1 -33174302#0 -32270595 8402997 8402998#1 8402998#2 29900564#1 8403007 23605595 4006693#1 4006693#2"/>
    </vehicle>
    <vehicle id="28" type="passenger" depart="1.40">
        <route edges="4006689 29900565#2 29900565#3 33174302#0 33174302#1 4686970#0 4686970#1 122161381 30350448 8364476 30350450#0 30350450#1 30350450#2 4006702#0 4006702#1 4006702#2 -23805514#1 23805514#1"/>
    </vehicle>
    <vehicle id="29" type="passenger" depart="1.45">
        <route edges="-3998643#2 3998643#2 30350450#2 4006702#0 31255203#0 31255203#1 31241838#0 -31241853#1 -31241855#1 -31241855#0 -31241834#1"/>
    </vehicle>
    <vehicle id="30" type="passenger" depart="1.50">
        <route edges="-4690348 4900739#2 4900741 35842306#0 35842306#1 4047446#0 4047446#1 25472079 30405352 30350445 -33174302#1 -33174302#0 -32270595 -29900561#1 -29900561#0 -8403001 -4006674#4 23605600#1 -23605600#1"/>
    </vehicle>
    <vehicle id="31" type="passenger" depart="1.55">
        <route edges="-31261347 31241851#1 31241851#2 -31255203#0 -4006702#0 4319352#1 44069041#0 44069041#1 25472079 30405352 30350445 -33174302#1 -33174302#0 -32270595 -29900561#1 -29900561#0 -4006688#4 -4006688#3 -4006688#2 -4006688#1 -4006688#0 31401017#1 31401017#2 4006693#0"/>
    </vehicle>
    <vehicle id="32" type="passenger" depart="1.60">
        <route edges="-3998612#1 3998612#1 3998612#2 3013106#0 3013106#1 3013106#2 4006702#0 31255203#0"/>
    </vehicle>
    <vehicle id="33" type="passenger" depart="1.65">
        <route edges="3998645#0 -3998645#0 -3998612#0 30357194 -30357194"/>
    </vehicle>
    <vehicle id="34" type="passenger" depart="1.70">
        <route edges="4006726#2 -3998645#0 -3998612#0 30357194 25472299 30350448 8364476"/>
    </vehicle>
    <vehicle id="35" type="passenger" depart="1.75">
        <route edges="-5558 -4006693#4 -4006693#3 -4006693#2 -4006693#1 -4006693#0 25398494#0 113939244#1 113939244#2 113939242#0"/>
    </vehicle>
    <vehicle id="36" type="passenger" depart="1.80">
        <route edges="-3998615#2 -3998615#1"/>
    </vehicle>
    <vehicle id="37" type="passenger" depart="1.85">
        <route edges="3998613#2 -31353573#1 -31353573#0 4686970#0 4686970#1 122161381 30350448 30350449 25472079 30405352 30350445"/>
    </vehicle>
    <vehicle id="38" type="passenger" depart="1.90">
        <route edges="-31241816#1 -31241838#1 -31241838#0 -31255203#1 -31255203#0 -4006702#0 4319352#1 44069041#0 44069041#1 4400949 31982182#0 4047241 4797872 4797871 4006668 126606716 113939242#0 5445204#1 5445204#2 5445204#3 -23570844#1"/>
    </vehicle>
    <vehicle id="39" type="passenger" depart="1.95">
        <route edges="-31241855#0 31241855#0 31241816#0 -31241838#1 -31241838#0 -31255203#1 -31255203#0 -4006702#0 4319352#1 44069041#0 25472134 30751813 -35842306#1 -35842306#0 35842306#0"/>
    </vehicle>
    <vehicle id="40" type="passenger" depart="2.00">
        <route edges="94344941 28768072 -28613737 -4006702#0 4319352#1 44069041#0 44069041#1 4400949 31982182#0 4047241 4797872 4797871 4006668 23339459 30405358#1"/>
    </vehicle>
    <vehicle id="41" type="passenger" depart="2.05">
        <route edges="23570844#2 10419402 -4006693#1 -23605595 -8403007 -29900564#1 -8402998#2 -8402998#1 -8402997 32270595 33174302#0 33174302#1 4686970#0 4686970#1 122161381 30350448 30350449 4047309 30751813 4047446#0 25472129"/>
    </vehicle>
    <vehicle id="42" type="passenger" depart="2.10">
        <route edges="33174302#1 -33174302#1 -33174302#0 -32302591#5 -32302591#4 -32302591#3"/>
    </vehicle>
    <vehicle id="43" type="passenger" depart="2.15">
        <route edges="4047316 -31270441 31777493#1 35842306#0 35842306#1 4047446#0 4047446#1 25472079 30405352 30350445 -33174302#1 -33174302#0 -32302591#5 -32302591#4 -32302591#3 -32302591#2 -32302591#1 4006682 -4006674#0"/>
    </vehicle>
    <vehicle id="44" type="passenger" depart="2.20">
        <route edges="113939242#1 113939244#1 113939244#2 -126606716 23339459 30405358#1 85355912 85355911#0 85355911#1 30405356 5931612 30350450#0 30350450#1 30350450#2 -3013106#2 -3013106#1 -3013106#0 3013106#0"/>
    </vehicle>
    <vehicle id="45" type="passenger" depart="2.25">
        <route edges="4319351 4319352#0 4006702#0 4006702#1 4006702#2 -23805514#1 -23805514#0"/>
    </vehicle>
    <vehicle id="46" type="passenger" depart="2.30">
        <route edges="-8402998#1 -8402997 32270595 -29900565#3"/>
    </vehicle>
    <vehicle id="47" type="passenger" depart="2.35">
        <route edges="-31401017#1 31401017#1"/>
    </vehicle>
    <vehicle id="48" type="passenger" depart="2.40">
        <route edges="-3998643#2 3998643#2 30350450#2 4319352#1 44069041#0 44069041#1 25472079 30405352 30350445 -33174302#1 -33174302#0 -32302591#5 -32302591#4"/>
    </vehicle>
    <vehicle id="49" type="passenger" depart="2.45">
        <route edges="-3998615#0 3013106#2 4319352#1 44069041#0 44069041#1 5931612"/>
    </vehicle>
    <vehicle id="50" type="passenger" depart="2.50">
        <route edges="-4006688#0 4006688#0 4006688#1 4006688#2 4006688#3 4006688#4 29900561#0 29900561#1 32270595 33174302#0 33174302#1 4686970#0 4686970#1 122161381 30350448 8364476 30350450#0 30350450#1 30350450#2 -3013106#2 -3013106#1 -3013107"/>
    </vehicle>
    <vehicle id="51" type="passenger" depart="2.55">
        <route edges="28613734 28613727#0 28613727#1 -94344940#0 28768072 -28613737 -4006702#0 -3013106#2 -3013106#1 -3013106#0 -10573414#1 4047378"/>
    </vehicle>
    <vehicle id="52" type="passenger" depart="2.60">
        <route edges="4006693#3 4006693#4 4006690 29900565#0 29900565#1 29900565#2 29900565#3 33174302#0 33174302#1 4686970#0 4686970#1 122161381 30350448 8364476 30350450#0 30350450#1 30350450#2 4006702#0 31255203#0 -31241851#2 -31241851#1 -31241851#0 -31241848 31241834#1"/>
    </vehicle>
    <vehicle id="53" type="passenger" depart="2.65">
        <route edges="29900564#5 29900565#0 29900565#1 29900565#2 29900565#3 33174302#0 33174302#1 4686970#0 4686970#1 122161381 30350448 8364476 30350450#0 30350450#1 30350450#2 4006702#0 31255203#0 -31241851#2 -31241851#1 -31241851#0 31241816#3"/>
    </vehicle>
    <vehicle id="54" type="passenger" depart="2.70">
        <route edges="4006693#4 4006690 -29900564#5 4006694"/>
    </vehicle>
    <vehicle id="55" type="passenger" depart="2.75">
        <route edges="-5445204#2 -5445204#1 113939244#2 -126606716 23339459 30405358#1 85355912 85355911#0 85355911#1 30405356 5931612 30350450#0 -3998645#2 -3998645#1 -4006726#2 -4006726#1 -4006726#0"/>
    </vehicle>
    <vehicle id="56" type="passenger" depart="2.80">
        <route edges="4686970#0 4686970#1 122161381 30350448 30350449 25472079 30405352 30350445 -33174302#1 -33174302#0 -32270595 -29900561#1 -29900561#0 -4006688#4 -4006688#3 -4006688#2 -4006688#1 -4006688#0 -31401017#0"/>
    </vehicle>
    <vehicle id="57" type="passenger" depart="2.85">
        <route edges="33174302#0 33174302#1 4686970#0 4686970#1 122161381 30350448 30350449 4047309 30751813 -35842306#1 -35842306#0 -4900741 -4900739#2 -4900739#1"/>
    </vehicle>
    <vehicle id="58" type="passenger" depart="2.90">
        <route edges="23805514#1 -4006702#2 -4006702#1 31255203#0 -31241851#2 -31241851#1 -31241851#0 -31241848"/>
    </vehicle>
    <vehicle id="59" type="passenger" depart="2.95">
        <route edges="-10425128#1 23341293 -8403007 -29900564#1 -8402998#2 -8402998#1 -8402997 32270595 33174302#0 33174302#1 4686970#0 4686970#1 122161381 30350448 8364476 30350450#0 30350450#1 30350450#2 4006702#0 28613737 94344941 94344940#0 94344940#2 94344940#3"/>
    </vehicle>
    <vehicle id="60" type="passenger" depart="3.00">
        <route edges="-29900564#1 -8402998#2 -8402998#1 -8402997 32270595 33174302#0 33174302#1 4686970#0 25472257 -30357194 3998612#0 -4006725#1 -4872369"/>
    </vehicle>
    <vehicle id="61" type="passenger" depart="3.05">
        <route edges="4006675 -4006675 -23605600#1 -4006674#3"/>
    </vehicle>
    <vehicle id="62" type="passenger" depart="3.10">
        <route edges="-3998645#2 -3998645#1 -3998645#0 -3998612#0 30357194 25472299 30350448 30350449 4400949 31982182#0 4047241 4797872 4797871 -15259223"/>
    </vehicle>
    <vehicle id="63" type="passenger" depart="3.15">
        <route edges="4006682 -4006682 -32302591#0 -125685391"/>
    </vehicle>
    <vehicle id="64" type="passenger" depart="3.20">
        <route edges="-31241816#0 31241855#1 31241853#1 -31241838#0 -31255203#1 -31255203#0 -4006702#0 4319352#1 44069041#0 44069041#1 4400949 31982182#0 4047241 4797872 4797871 4006668 23339459 30405358#1 85355912 85355911#0 85355911#1 30405356"/>
    </vehicle>
    <vehicle id="65" type="passenger" depart="3.25">
        <route edges="35842306#1 4047446#0 4047446#1 25472079 30405352 30350445 -33174302#1 -33174302#0 -32270595 8402997 8402998#1 8402998#2 29900564#1 29900564#2 -4006691"/>
    </vehicle>
    <vehicle id="66" type="passenger" depart="3.30">
        <route edges="-8402998#2 8402998#2 29900564#1 8403007 23605595 -4006693#0 4006693#0"/>
    </vehicle>
    <vehicle id="67" type="passenger" depart="3.35">
        <route edges="-26188722 35842306#1 4047446#0 4047446#1 25472079 30405352 30350445 -33174302#1 -33174302#0 -32302591#5 -32302591#4 -32302591#3 -32302591#2 -32302591#1 -32302591#0 -125685391"/>
    </vehicle>
    <vehicle id="68" type="passenger" depart="3.40">
        <route edges="4006688#2 4006688#3 4006688#4 29900561#0 29900561#1 32270595 33174302#0 33174302#1 4686970#0 4686970#1 122161381 30350448 30350449 4047309 30751813 4047446#0 4047446#1"/>
    </vehicle>
    <vehicle id="69" type="passenger" depart="3.45">
        <route edges="-28269601 28269601 37591481 -113939241 113939244#0 113939244#1 113939244#2 -126606716 23339459 30405358#1 85355912 85355911#0 85355911#1 30405356 5931612 30350450#0 30350450#1 30350450#2 4006702#0 31255203#0 31255203#1 31241838#0 -31241853#1 -31241855#1"/>
    </vehicle>
    <vehicle id="70" type="passenger" depart="3.50">
        <route edges="32270592#1 4047532 31401018 29900567 31401017#0 31401017#1 31401017#2 25398494#0 113939244#1 113939244#2 -126606716"/>
    </vehicle>
    <vehicle id="71" type="passenger" depart="3.55">
        <route edges="4006688#0 4006688#1 4006688#2 4006688#3 4006688#4 29900561#0 29900561#1 32270595 33174302#0 33174302#1 4686970#0 4686970#1 122161381 30350448 8364476 30350450#0 30350450#1 30350450#2"/>
    </vehicle>
    <vehicle id="72" type="passenger" depart="3.60">
        <route edges="-33174302#1 -33174302#0 -29900565#3 -29900565#2 -29900565#1 4006691"/>
    </vehicle>
    <vehicle id="73" type="passenger" depart="3.65">
        <route edges="4006682 4006674#1 4006674#2 4006674#3 4006674#4 8403001 -4006688#4 -4006688#3 -4006688#2 -4006688#1 -4006688#0 31401017#1 31401017#2 25398494#0 113939244#1 5445204#1 5445204#2 -5445204#2"/>
    </vehicle>
    <vehicle id="74" type="passenger" depart="3.70">
        <route edges="-10425130 4006688#2 4006688#3 4006688#4 29900561#0 29900561#1 32270595 33174302#0 33174302#1 4686970#0 4686970#1 122161381 30350448 8364476 30350450#0 30350450#1 30350450#2 4006702#0 31255203#0 31255203#1 31241838#0 -31241853#1 -31241855#1"/>
    </vehicle>
    <vehicle id="75" type="passenger" depart="3.75">
        <route edges="-31241853#1 31241853#1 -31241838#0 -31255203#1 -31255203#0 -4006702#0 4319352#1 44069041#0 44069041#1 25472079 30405352 30350445 -33174302#1 -33174302#0 -29900565#3 -29900565#2 -29900565#1 -29900565#0 -29900564#5"/>
    </vehicle>
    <vehicle id="76" type="passenger" depart="3.80">
        <route edges="29900565#0"/>
    </vehicle>
    <vehicle id="77" type="passenger" depart="3.85">
        <route edges="-32302591#5 32302591#5 33174302#0 33174302#1 4686970#0 4686970#1 122161381 30350448 8364476 30350450#0 30350450#1 30350450#2 4006702#0 4006702#1 4900043 4900041#1 4900041#2 -23350930"/>
    </vehicle>
    <vehicle id="78" type="passenger" depart="3.90">
        <route edges="10425130 4006688#4 -8403001 -4006674#4 23605600#1 4006675 -4006675"/>
    </vehicle>
    <vehicle id="79" type="passenger" depart="3.95">
        <route edges="-31241838#0 -31255203#1 -31255203#0 -4006702#0 4319352#1 44069041#0 44069041#1 25472079 30405352 30350445 -33174302#1 -33174302#0 -32270595 -29900561#1 -29900561#0 -4006688#4 -4006688#3 -4006688#2 -4006688#1 -4006688#0 -31401017#0 -29900567 -31401018 -4047532 -32270592#1"/>
    </vehicle>
    <vehicle id="80" type="passenger" depart="4.00">
        <route edges="-33174302#1 -33174302#0 -32302591#5 -32302591#4 -32302591#3 -32302591#2 -32302591#1 -32302591#0 -125685391"/>
    </vehicle>
    <vehicle id="81" type="passenger" depart="4.05">
        <route edges="8402998#3 31401017#2 4006693#0 4006693#1 -10419402"/>
    </vehicle>
    <vehicle id="82" type="passenger" depart="4.10">
        <route edges="3998612#1 -4006724#2"/>
    </vehicle>
    <vehicle id="83" type="passenger" depart="4.15">
        <route edges="-41973977 41973977 -3998613#2 -3998613#1 -3998613#0 3998612#0 3998612#1 3998612#2 3013106#0 -3013106#0"/>
    </vehicle>
    <vehicle id="84" type="passenger" depart="4.20">
        <route edges="29900564#5 29900565#0 29900565#1 29900565#2 29900565#3 33174302#0 33174302#1 4686970#0 4686970#1 122161381 30350448 8364476 30350450#0 30350450#1 30350450#2 4006702#0 4006702#1 4006702#2 -28269598 -4006703#1 4006705#1 -25210699"/>
    </vehicle>
    <vehicle id="85" type="passenger" depart="4.25">
        <route edges="4900041#0 -4900043 -4006702#1 -4006702#0 4319352#1 44069041#0 44069041#1 25472079 30405352 30350445 -33174302#1 -33174302#0 -29900565#3 -29900565#2"/>
    </vehicle>
    <vehicle id="86" type="passenger" depart="4.30">
        <route edges="29900564#3 -29900564#3 -29900564#2 -29900564#1 -29900564#0 -8403001 4006687"/>
    </vehicle>
    <vehicle id="87" type="passenger" depart="4.35">
        <route edges="41973977 -31353573#1 -31353573#0 -33174302#1 -33174302#0 -32270595 -29900561#1 -29900561#0 -4006688#4 -4006688#3 -4006688#2 -4006688#1 -4006688#0 -31401017#0"/>
    </vehicle>
    <vehicle id="88" type="passenger" depart="4.40">
        <route edges="4006690 -29900564#5 -29900564#4 -29900564#3 -29900564#2 -29900564#1 -29900564#0 -8403001 -4006674#4 23605600#1 4006675 -32270592#0"/>
    </vehicle>
    <vehicle id="89" type="passenger" depart="4.45">
        <route edges="25210699 -4006705#1 4006703#1 28269598"/>
    </vehicle>
    <vehicle id="90" type="passenger" depart="4.50">
        <route edges="3998612#1 -3998612#1 -3998612#0 30357194 25472299 30350448 8364476"/>
    </vehicle>
    <vehicle id="91" type="passenger" depart="4.55">
        <route edges="-5445204#2 -5445204#1 113939242#1 -25398494#0 4006693#0 -23605595 -8403007 -29900564#1 -8402998#2 8402998#2"/>
    </vehicle>
    <vehicle id="92" type="passenger" depart="4.60">
        <route edges="-28613727#0 28613727#0 28613727#1 -94344940#0 28768072 -28613737 -4006702#0 4319352#1 44069041#0 44069041#1 25472079 30405352 19796637 122161381 30350448 30350449"/>
    </vehicle>
    <vehicle id="93" type="passenger" depart="4.65">
        <route edges="113939244#0 113939244#1 113939244#2 -126606716 23339459 30405358#1 85355912 85355911#0 85355911#1 30405356 25472079 30405352 30350445 31353573#0 31353573#1 -3998613#2 -3998613#1"/>
    </vehicle>
    <vehicle id="94" type="passenger" depart="4.70">
        <route edges="4006703#0 4006703#1 28269598 -4006702#2 -4006702#1 -4006702#0 4319352#1 44069041#0 44069041#1 25472079 30405352 30350445 -33174302#1 -33174302#0 -32270595 -29900561#1 -29900561#0 29900564#0 -29900564#0"/>
    </vehicle>
    <vehicle id="95" type="passenger" depart="4.75">
        <route edges="-31255203#1 -31255203#0 -4006702#0 -3013106#2 -3013106#1 3013106#1"/>
    </vehicle>
    <vehicle id="96" type="passenger" depart="4.80">
        <route edges="4006684 32302591#3 32302591#4 32302591#5 33174302#0 33174302#1 4686970#0 25472257 -30357194 30357194"/>
    </vehicle>
    <vehicle id="97" type="passenger" depart="4.85">
        <route edges="30405356 5931612 30350450#0 30350450#1 30350450#2 4006702#0 31255203#0 -31241851#2 -31241851#1 -31241851#0 -31241848"/>
    </vehicle>
    <vehicle id="98" type="passenger" depart="4.90">
        <route edges="-4099270#1 -4099270#0 -4006726#1 -3998643#0 -4006724#2 4006724#2"/>
    </vehicle>
    <vehicle id="99" type="passenger" depart="4.95">
        <route edges="-4006688#0 4006688#0 4006688#1 4006688#2 4006688#3 4006688#4 29900561#0 29900561#1 32270595 33174302#0 33174302#1 4686970#0 4686970#1 122161381 30350448 8364476 30350450#0 30350450#1"/>
    </vehicle>
    <vehicle id="100" type="passenger" depart="5.00">
        <route edges="19796637 122161381 30350448 8364476 30350450#0 30350450#1 30350450#2 4006702#0 28613737 94344941 94344940#0 -28613727#1"/>
    </vehicle>
    <vehicle id="101" type="passenger" depart="5.05">
        <route edges="-25398494#0 -31401017#2 -31401017#1 4006688#0 4006688#1 4006688#2 4006688#3 4006688#4 29900561#0 29900561#1 32270595 33174302#0 33174302#1 4686970#0 4686970#1 122161381 30350448 8364476 30350450#0 30350450#1 30350450#2 4006702#0 28613737 94344941 94344940#0"/>
    </vehicle>
    <vehicle id="102" type="passenger" depart="5.10">
        <route edges="3998613#1 3998613#2 -31353573#1 -31353573#0 -33174302#1 -33174302#0"/>
    </vehicle>
    <vehicle id="103" type="passenger" depart="5.15">
        <route edges="3998615#3 -3998645#1 -3998645#0 -3998612#0 30357194 25472299 30350448 30350449 25472079 30405352 30350445 -33174302#1 -33174302#0 -32270595 8402997 8402998#1 8402998#2 29900564#1 8403007 23605595 4006693#1 -10419402 -23570844#2"/>
    </vehicle>
    <vehicle id="104" type="passenger" depart="5.20">
        <route edges="4006726#0 -3998643#0 -3998612#1 3998645#0"/>
    </vehicle>
    <vehicle id="105" type="passenger" depart="5.25">
        <route edges="-4006688#0 4006688#0 4006688#1 4006688#2 4006688#3 4006688#4 29900561#0 29900561#1 32270595 33174302#0 33174302#1 4686970#0 25472257 -30357194 3998612#0 3998612#1 3998612#2"/>
    </vehicle>
    <vehicle id="106" type="passenger" depart="5.30">
        <route edges="-32302591#3 32302591#3 32302591#4 32302591#5 33174302#0 33174302#1 4686970#0 4686970#1 122161381 30350448 30350449 4047309 30751813 -35842306#1 -35842306#0 -4900741 -4900739#2 4900739#2"/>
    </vehicle>
    <vehicle id="107" type="passenger" depart="5.35">
        <route edges="23805514#0 23805514#1 -4006702#2 -4006702#1 -4006702#0 4319352#1 44069041#0 44069041#1 4400949 31982182#0 4047241 4797872 4797871 4006668 126606716 113939242#0 113939242#1 -25398494#0"/>
    </vehicle>
    <vehicle id="108" type="passenger" depart="5.40">
        <route edges="4047241 4797872 4797871 4006668 23339459 30405358#1 85355912 85355911#0 85355911#1 30405356 5931612 30350450#0 30350450#1 30350450#2 4006702#0 -4006702#0"/>
    </vehicle>
    <vehicle id="109" type="passenger" depart="5.45">
        <route edges="35842306#1 4047446#0 4047446#1 25472079 30405352 30350445 -33174302#1 -33174302#0 -32270595 -29900561#1 -29900561#0 -8403001 4006687"/>
    </vehicle>
    <vehicle id="110" type="passenger" depart="5.50">
        <route edges="28613727#0 28613727#1 -94344940#0 28768072 -28613737 -4006702#0 4319352#1 44069041#0 44069041#1 25472079 30405352 30350445 -33174302#1 -33174302#0 -29900565#3 -29900565#2 -29900565#1 -29900565#0 -4006690"/>
    </vehicle>
    <vehicle id="111" type="passenger" depart="5.55">
        <route edges="25472079 30405352 19796637 122161381 30350448 8364476 30350450#0 30350450#1 30350450#2 4006702#0 4006702#1 4006702#2 -28269598 -4006703#1 4006705#1 -4006705#1"/>
    </vehicle>
    <vehicle id="112" type="passenger" depart="5.60">
        <route edges="-4006702#2 -4006702#1 31255203#0 -31241851#2 -31241851#1 -31241851#0"/>
    </vehicle>
    <vehicle id="113" type="passenger" depart="5.65">
        <route edges="3998643#2 30350450#2 4319352#1 44069041#0 44069041#1 25472079 30405352 30350445 -33174302#1 -33174302#0 -32302591#5 -32302591#4 -32302591#3 -32302591#2 -32302591#1 -32302591#0 4006672 32270593 32270592#0 -4006675"/>
    </vehicle>
    <vehicle id="114" type="passenger" depart="5.70">
        <route edges="4047316 -31270441 31777493#1 35842306#0 35842306#1 4047446#0 4047446#1 25472079 30405352 30350445 -33174302#1 -33174302#0 -29900565#3 29900565#3"/>
    </vehicle>
    <vehicle id="115" type="passenger" depart="5.75">
        <route edges="4797871 4006668 23339459 30405358#1 85355912 85355911#0 85355911#1 30405356 5931612 30350450#0 -3998645#2 -3998645#1 -3998645#0 3998612#1 -4006724#2 -4006724#1 4006724#1"/>
    </vehicle>
    <vehicle id="116" type="passenger" depart="5.80">
        <route edges="4006705#2 -4006705#2 -4006705#1 4006703#1 28269598 -4006702#2 -4006702#1 -4006702#0 4319352#1 44069041#0 44069041#1 25472079 30405352 30350445 -33174302#1 -33174302#0 -29900565#3 -29900565#2 -29900565#1 -29900565#0 -4006690 -4006693#4 -4006693#3 -4006693#2"/>
    </vehicle>
    <vehicle id="117" type="passenger" depart="5.85">
        <route edges="-4006676 32302591#4 32302591#5 33174302#0 33174302#1 4686970#0 4686970#1 122161381 30350448 30350449 4047309 30751813 -35842306#1 -35842306#0"/>
    </vehicle>
    <vehicle id="118" type="passenger" depart="5.90">
        <route edges="-4006691 -29900565#0 -29900564#5 4006694"/>
    </vehicle>
    <vehicle id="119" type="passenger" depart="5.95">
        <route edges="30350449 25472079 30405352 19796637 122161381 30350448 8364476"/>
    </vehicle>
    <vehicle id="120" type="passenger" depart="6.00">
        <route edges="25398494#0 113939244#1 113939244#2 -126606716 23339459 30405358#1 85355912 85355911#0 85355911#1 30405356 5931612 30350450#0 30350450#1 -3998643#2 -3998615#1 -3998615#0"/>
    </vehicle>
    <vehicle id="121" type="passenger" depart="6.05">
        <route edges="3998613#2 -3998613#2 -3998613#1 -3998613#0 3998612#0 -3998612#0"/>
    </vehicle>
    <vehicle id="122" type="passenger" depart="6.10">
        <route edges="-4006690 4006690 29900565#0 29900565#1 29900565#2 29900565#3 -32302591#5 -32302591#4 -32302591#3 -32302591#2 -32302591#1 -32302591#0 -125685391"/>
    </vehicle>