[General]
cmdenv-express-mode = true
cmdenv-autoflush = true
cmdenv-status-frequency = 1s
#simtime-resolution = ps
**.cmdenv-log-level = info

ned-path = .
image-path = ../../images

network = RSUExampleScenario

##########################################################
#            Simulation parameters                       #
##########################################################
debug-on-errors = true
print-undisposed = false

sim-time-limit = 600s

**.scalar-recording = true
**.vector-recording = true

*.playgroundSizeX = 2500m
*.playgroundSizeY = 2500m
*.playgroundSizeZ = 50m

#Colongne
#*.playgroundSizeX = 5000m
#*.playgroundSizeY = 5000m
#*.playgroundSizeZ = 50m

#WD
#*.playgroundSizeX = 3088m
#*.playgroundSizeY = 2517m


##########################################################
# Annotation parameters                                  #
##########################################################
*.annotations.draw = false

##########################################################
# Obstacle parameters                                    #
##########################################################
*.obstacles.obstacles = xmldoc("config.xml", "//AnalogueModel[@type='SimpleObstacleShadowing']/obstacles")

##########################################################
#            TraCIScenarioManager parameters             #
##########################################################
*.manager.updateInterval = 1s
*.manager.host = "localhost"
*.manager.port = 9999
*.manager.autoShutdown = true
*.manager.launchConfig = xmldoc("erlangen.launchd.xml")

##########################################################
#                       RSU SETTINGS                     #
#                                                        #
#                                                        #
##########################################################
#*.rsu[0].mobility.x = 3500
#*.rsu[0].mobility.y = 3000
#*.rsu[0].mobility.z = 50
#
#*.rsu[1].mobility.x = 1200
#*.rsu[1].mobility.y = 3000
#*.rsu[1].mobility.z = 50
#
#*.rsu[2].mobility.x = 3500
#*.rsu[2].mobility.y = 2000
#*.rsu[2].mobility.z = 50
#
#*.rsu[3].mobility.x = 1200
#*.rsu[3].mobility.y = 2000
#*.rsu[3].mobility.z = 50


#Erlangen

*.rsu[0].mobility.x = 500
*.rsu[0].mobility.y = 500
*.rsu[0].mobility.z = 50

#*.rsu[1].mobility.x = 1000
#*.rsu[1].mobility.y = 1000
#*.rsu[1].mobility.z = 50

#*.rsu[2].mobility.x = 1500
#*.rsu[2].mobility.y = 1500
#*.rsu[2].mobility.z = 50

#*.rsu[3].mobility.x = 2000
#*.rsu[3].mobility.y = 2000
#*.rsu[3].mobility.z = 50
#*.rsu[4].mobility.x = 2500
#*.rsu[4].mobility.y = 2500
#*.rsu[4].mobility.z = 50
#*.rsu[5].mobility.x = 500
#*.rsu[5].mobility.y = 1800
#*.rsu[5].mobility.z = 50
#*.rsu[6].mobility.x = 2000
#*.rsu[6].mobility.y = 500
#*.rsu[6].mobility.z = 50



*.rsu[1].mobility.x = 1500
*.rsu[1].mobility.y = 500
*.rsu[1].mobility.z = 50

*.rsu[2].mobility.x = 1500
*.rsu[2].mobility.y = 1500
*.rsu[2].mobility.z = 50

*.rsu[3].mobility.x = 500
*.rsu[3].mobility.y = 1500
*.rsu[3].mobility.z = 50






#*.rsu[*].mobility.x = uniform(500,4000)
#*.rsu[*].mobility.y = uniform(500,3000)
#*.rsu[*].mobility.z = 50



*.rsu[*].applType = "TraCIDemoRSU11p"
*.rsu[*].appl.headerLength = 80 bit
*.rsu[*].appl.sendBeacons = true
*.rsu[*].appl.dataOnSch = false
*.rsu[*].appl.beaconInterval = 1s
*.rsu[*].appl.beaconUserPriority = 7
*.rsu[*].appl.dataUserPriority = 5
*.rsu[*].nic.phy80211p.antennaOffsetZ = 0 m

##########################################################
#            11p specific parameters                     #
#                                                        #
#                    NIC-Settings                        #
##########################################################
*.connectionManager.sendDirect = true
*.connectionManager.maxInterfDist = 500m #was 2600m
*.connectionManager.drawMaxIntfDist = true

*.**.nic.mac1609_4.useServiceChannel = false

*.**.nic.mac1609_4.txPower = 20mW
*.**.nic.mac1609_4.bitrate = 6Mbps
*.**.nic.phy80211p.minPowerLevel = -110dBm

*.**.nic.phy80211p.useNoiseFloor = true
*.**.nic.phy80211p.noiseFloor = -98dBm

*.**.nic.phy80211p.decider = xmldoc("config.xml")
*.**.nic.phy80211p.analogueModels = xmldoc("config.xml")
*.**.nic.phy80211p.usePropagationDelay = true

*.**.nic.phy80211p.antenna = xmldoc("antenna.xml", "/root/Antenna[@id='monopole']")
*.node[*].nic.phy80211p.antennaOffsetY = 0 m
*.node[*].nic.phy80211p.antennaOffsetZ = 1.895 m

##########################################################
#                      App Layer                         #
##########################################################
*.node[*].applType = "TraCIDemo11p"
*.node[*].appl.headerLength = 80 bit
*.node[*].appl.sendBeacons = true
*.node[*].appl.dataOnSch = false
*.node[*].appl.beaconInterval = 1s

##########################################################
#                      Mobility                          #
##########################################################
*.node[*].veinsmobility.x = 0
*.node[*].veinsmobility.y = 0
*.node[*].veinsmobility.z = 0
*.node[*].veinsmobility.setHostSpeed = false
*.node[*0].veinsmobility.accidentCount = 1
*.node[*0].veinsmobility.accidentStart = 73s
*.node[*0].veinsmobility.accidentDuration = 50s



[Config Default]

[Config WithBeaconing]
*.rsu[*].appl.sendBeacons = true
*.node[*].appl.sendBeacons = true

[Config WithChannelSwitching]
*.**.nic.mac1609_4.useServiceChannel = true
*.node[*].appl.dataOnSch = true
*.rsu[*].appl.dataOnSch = true

