<?xml version="1.0" encoding="UTF-8"?>

<!-- generated on 2022-10-07 20:11:09 by Eclipse SUMO netconvert Version 1.14.1
<configuration xmlns:xsi="http://www.w3.org/2001/XMLSchema-instance" xsi:noNamespaceSchemaLocation="http://sumo.dlr.de/xsd/netconvertConfiguration.xsd">

    <input>
        <sumo-net-file value="colognev700.net.xml"/>
    </input>

    <output>
        <plain-output-prefix value="colognev700"/>
    </output>

    <processing>
        <geometry.min-radius.fix.railways value="false"/>
        <geometry.max-grade.fix value="false"/>
        <offset.disable-normalization value="true"/>
        <lefthand value="false"/>
    </processing>

    <junctions>
        <no-internal-links value="true"/>
        <no-turnarounds value="true"/>
        <junctions.corner-detail value="5"/>
        <junctions.limit-turn-speed value="5.5"/>
        <rectangular-lane-cut value="false"/>
    </junctions>

    <pedestrian>
        <walkingareas value="false"/>
    </pedestrian>

</configuration>
-->

<edges version="1.9" xmlns:xsi="http://www.w3.org/2001/XMLSchema-instance" xsi:noNamespaceSchemaLocation="http://sumo.dlr.de/xsd/edges_file.xsd">
    <edge id="-100261834#1" from="1158828070" to="624214646" priority="1" type="highway.service" numLanes="1" speed="5.56" shape="1488.09,1902.36 1488.35,1901.58 1496.80,1869.42 1472.42,1863.52" allow="pedestrian delivery bicycle"/>
    <edge id="-1002809958" from="376578747" to="9254676052" priority="1" type="highway.service" numLanes="1" speed="5.56" allow="pedestrian delivery bicycle"/>
    <edge id="-1008124634" from="9300506801" to="cluster_9300506804_9300506808" priority="1" type="highway.service" numLanes="1" speed="5.56" shape="2512.58,2948.70 2498.97,2989.79 2494.60,3002.99 2491.10,3013.55" allow="pedestrian delivery bicycle"/>
    <edge id="-1008124637" from="9300506805" to="cluster_9300506804_9300506808" priority="1" type="highway.service" numLanes="1" speed="5.56" shape="2521.49,2948.80 2508.20,2984.56 2502.67,2991.09 2498.21,3004.30 2494.37,3014.59" allow="pedestrian delivery bicycle"/>
    <edge id="-1008124641" from="9300506811" to="9300506812" priority="1" type="highway.service" numLanes="1" speed="5.56" allow="pedestrian delivery bicycle"/>
    <edge id="-1008124644#0" from="9300506812" to="cluster_26722147_368848_9300572098" priority="1" type="highway.service" numLanes="1" speed="5.56" shape="2558.07,2945.88 2556.36,2936.97 2565.89,2935.18 2580.55,2932.34 2587.52,2931.01 2594.14,2929.75" allow="pedestrian delivery bicycle"/>
    <edge id="-1008124644#1" from="9300506805" to="9300506812" priority="1" type="highway.service" numLanes="1" speed="5.56" shape="2521.49,2948.80 2523.68,2960.25 2559.51,2953.41 2558.07,2945.88" allow="pedestrian delivery bicycle"/>
    <edge id="-1008124644#2" from="9300506813" to="9300506805" priority="1" type="highway.service" numLanes="1" speed="5.56" shape="2522.47,2906.37 2525.90,2924.24 2517.10,2925.93 2521.49,2948.80" allow="pedestrian delivery bicycle"/>
    <edge id="-1010641521#1" from="257886287" to="4142980732" priority="3" type="highway.residential" numLanes="1" speed="13.89" shape="3911.31,1519.88 3872.30,1512.44 3839.66,1507.36 3833.76,1506.44 3822.86,1504.74 3789.99,1500.34 3778.94,1497.18 3771.45,1495.39 3762.89,1493.15 3757.77,1490.32" disallow="tram rail_urban rail rail_electric rail_fast ship"/>
    <edge id="-1016257783#2" from="1634119634" to="1634119673" priority="1" type="highway.service" numLanes="1" speed="5.56" shape="2244.87,1314.39 2230.41,1347.10 2222.51,1365.36 2227.44,1379.46 2240.10,1386.93 2249.21,1394.06 2254.90,1400.28 2230.39,1420.01 2224.11,1424.20" allow="pedestrian delivery bicycle"/>
    <edge id="-1016582154#0" from="5793651112" to="300602551" priority="1" type="highway.service" numLanes="1" speed="1.67" shape="981.75,1268.72 986.20,1255.59 998.60,1227.05 999.83,1224.21 1003.98,1214.67 1008.35,1202.53" allow="pedestrian delivery bicycle"/>
    <edge id="-1016582154#1" from="1394847124" to="5793651112" priority="1" type="highway.service" numLanes="1" speed="1.67" allow="pedestrian delivery bicycle"/>
    <edge id="-101742041" from="1174725046" to="368532" priority="1" type="highway.service" numLanes="1" speed="5.56" shape="1976.78,1025.10 1978.32,1013.69 1977.79,1003.84 1976.38,991.27 1972.63,983.12 1967.04,974.39" allow="pedestrian delivery bicycle"/>
    <edge id="-101742046#0" from="1177585871" to="368532" priority="1" type="highway.service" numLanes="1" speed="5.56" shape="1966.06,1000.33 1967.12,986.79 1967.04,974.39" allow="pedestrian delivery bicycle"/>
    <edge id="-101742046#1" from="1177585827" to="1177585871" priority="1" type="highway.service" numLanes="1" speed="5.56" allow="pedestrian delivery bicycle"/>
    <edge id="-102003405" from="1177523742" to="cluster_1177523747_353429081" priority="1" type="highway.service" numLanes="1" speed="5.56" shape="2046.92,825.45 2064.27,858.22" allow="pedestrian delivery bicycle"/>
    <edge id="-102010401" from="1177585827" to="1177585871" priority="1" type="highway.service" numLanes="1" speed="5.56" shape="1965.44,1017.28 1961.34,1015.68 1935.25,1005.15 1944.02,988.37 1951.09,992.20 1961.83,998.03 1966.06,1000.33" allow="pedestrian delivery bicycle"/>
    <edge id="-102010402#0" from="353414542" to="1177585827" priority="1" type="highway.service" numLanes="1" speed="5.56" shape="1948.26,1089.23 1968.62,1049.11 1964.91,1041.40 1964.66,1031.43 1965.09,1023.64 1965.44,1017.28" allow="pedestrian delivery bicycle"/>
    <edge id="-102010402#1" from="353414543" to="353414542" priority="1" type="highway.service" numLanes="1" speed="5.56" shape="1931.28,1120.26 1939.64,1104.28 1948.26,1089.23" allow="pedestrian delivery bicycle"/>
    <edge id="-102010404" from="368491" to="368532" priority="3" type="highway.residential" numLanes="1" speed="13.89" disallow="tram rail_urban rail rail_electric rail_fast ship"/>
    <edge id="-1020497837" from="25630648" to="961949602" priority="3" type="highway.residential" numLanes="1" speed="13.89" shape="3316.25,2611.61 3316.44,2619.94 3316.73,2632.81" disallow="tram rail_urban rail rail_electric rail_fast ship"/>
    <edge id="-10212091#0" from="7012826575" to="cluster_3735277343_443847_660638860" priority="3" type="highway.residential" numLanes="1" speed="8.33" shape="3323.35,1614.71 3359.47,1654.59" disallow="tram rail_urban rail rail_electric rail_fast ship"/>
    <edge id="-10212091#1" from="273218060" to="7012826575" priority="3" type="highway.residential" numLanes="1" speed="8.33" shape="3273.24,1559.77 3288.91,1576.69 3323.35,1614.71" disallow="tram rail_urban rail rail_electric rail_fast ship"/>
    <edge id="-10212091#2" from="84497500" to="273218060" priority="3" type="highway.residential" numLanes="1" speed="8.33" disallow="tram rail_urban rail rail_electric rail_fast ship"/>
    <edge id="-10212091#3" from="cluster_213284374_6957345535" to="84497500" priority="3" type="highway.residential" numLanes="1" speed="8.33" shape="3229.67,1512.99 3252.09,1537.80" disallow="tram rail_urban rail rail_electric rail_fast ship"/>
    <edge id="-10212384#1" from="592157821" to="84503732" priority="1" type="highway.service" numLanes="1" speed="5.56" shape="3115.72,1506.19 3138.80,1491.48 3150.56,1484.44" allow="pedestrian delivery bicycle"/>
    <edge id="-10212385#3" from="84503733" to="592168297" priority="1" type="highway.service" numLanes="1" speed="5.56" shape="3076.94,1516.19 3076.67,1509.53 3063.19,1485.54 3059.14,1479.36 3056.64,1468.93 3058.97,1465.17 3084.34,1435.61 3089.27,1429.87 3104.88,1419.79" allow="pedestrian delivery bicycle"/>
    <edge id="-1027492830#0" from="4887868298" to="4887868303" priority="1" type="highway.service" numLanes="1" speed="5.56" shape="1500.16,1144.73 1493.61,1139.12 1484.77,1132.18 1460.24,1121.67 1431.59,1112.95" allow="pedestrian delivery bicycle"/>
    <edge id="-1027492830#1" from="8660745178" to="4887868298" priority="1" type="highway.service" numLanes="1" speed="5.56" shape="1545.71,1158.89 1513.06,1146.81 1505.33,1145.19 1500.16,1144.73" allow="pedestrian delivery bicycle"/>
    <edge id="-1028265871" from="8662905051" to="4887868298" priority="1" type="highway.service" numLanes="1" speed="5.56" shape="1483.03,1192.55 1498.34,1149.79 1500.16,1144.73" allow="pedestrian delivery bicycle"/>
    <edge id="-1031640724" from="9507752437" to="289918048" priority="1" type="highway.service" numLanes="1" speed="5.56" allow="pedestrian delivery bicycle"/>
    <edge id="-1034736568" from="9531733999" to="25630546" priority="1" type="highway.service" numLanes="1" speed="5.56" shape="2473.24,2591.32 2476.85,2625.10 2482.78,2624.48 2499.15,2621.90 2500.52,2621.69 2505.98,2620.92 2509.05,2627.50" allow="pedestrian delivery bicycle"/>
    <edge id="-1039460421" from="1497203293" to="1497203255" priority="1" type="highway.service" numLanes="1" speed="5.56" shape="3192.93,1950.01 3193.86,1934.27 3196.90,1929.81 3199.23,1926.84" allow="pedestrian delivery bicycle"/>
    <edge id="-1040380418" from="9579451047" to="cluster_9579451044_9579451049" priority="1" type="highway.service" numLanes="1" speed="5.56" shape="1442.83,2485.97 1434.43,2455.85 1427.53,2451.97 1408.36,2452.91 1388.65,2453.88" allow="pedestrian delivery bicycle"/>
    <edge id="-1040380419" from="9579451050" to="cluster_9579451044_9579451049" priority="1" type="highway.service" numLanes="1" speed="5.56" shape="1422.87,2457.14 1406.10,2458.25 1389.09,2459.38" allow="pedestrian delivery bicycle"/>
    <edge id="-1040627970" from="592116469" to="84503733" priority="1" type="highway.service" numLanes="1" speed="5.56" shape="3000.95,1517.75 3011.27,1513.54 3024.79,1514.38 3076.94,1516.19" allow="pedestrian delivery bicycle"/>
    <edge id="-1041751791" from="9590483403" to="9590483405" priority="1" type="highway.service" numLanes="1" speed="5.56" shape="3047.47,2492.75 3046.36,2476.39 3046.26,2474.86 3063.58,2471.42" allow="pedestrian delivery bicycle"/>
    <edge id="-1041751793#0" from="9590483405" to="664112574" priority="1" type="highway.service" numLanes="1" speed="5.56" allow="pedestrian delivery bicycle"/>
    <edge id="-1042668178" from="60466266" to="28123162" priority="3" type="highway.residential" numLanes="1" speed="13.89" shape="3795.47,2656.05 3753.12,2656.17 3752.40,2643.00 3752.23,2625.75" disallow="tram rail_urban rail rail_electric rail_fast ship"/>
    <edge id="-1044303170" from="549912669" to="549912716" priority="1" type="highway.service" numLanes="1" speed="5.56" shape="3355.99,2086.77 3356.36,2113.44 3359.70,2116.43 3361.70,2118.23 3369.58,2117.93 3401.39,2117.88 3414.23,2117.45" allow="pedestrian delivery bicycle"/>
    <edge id="-1049201852" from="248109294" to="253230293" priority="3" type="highway.residential" numLanes="1" speed="8.33" disallow="tram rail_urban rail rail_electric rail_fast ship"/>
    <edge id="-105425059" from="1214320190" to="1214320261" priority="1" type="highway.service" numLanes="1" speed="5.56" shape="2166.01,1230.08 2180.65,1201.24 2182.19,1199.15" allow="pedestrian delivery bicycle"/>
    <edge id="-105425068" from="1214320250" to="1214320200" priority="1" type="highway.service" numLanes="1" speed="5.56" shape="2104.87,1437.06 2127.50,1447.40 2132.41,1449.64" allow="pedestrian delivery bicycle"/>
    <edge id="-1054278018" from="1879164993" to="1879165105" priority="1" type="highway.service" numLanes="1" speed="5.56" shape="2997.91,2657.03 3003.97,2664.33 2999.91,2667.39 2985.85,2678.02 2979.60,2682.04" allow="pedestrian delivery bicycle"/>
    <edge id="-1073630194" from="9848638090" to="1631250717" priority="1" type="highway.service" numLanes="1" speed="5.56" shape="3072.00,2903.08 3084.11,2904.19 3085.55,2884.28 3085.39,2868.91 3085.13,2859.00" allow="pedestrian delivery bicycle"/>
    <edge id="-1075858996#0" from="9978707931" to="357125" priority="3" type="highway.residential" numLanes="1" speed="13.89" disallow="tram rail_urban rail rail_electric rail_fast ship"/>
    <edge id="-1075858996#1" from="2639998593" to="9978707931" priority="3" type="highway.residential" numLanes="1" speed="13.89" disallow="tram rail_urban rail rail_electric rail_fast ship"/>
    <edge id="-108372346" from="444326402" to="cluster_1243664300_664112572" priority="1" type="highway.service" numLanes="1" speed="5.56" shape="3059.01,2494.15 3057.71,2489.55" allow="pedestrian delivery bicycle"/>
    <edge id="-1086848625" from="33407214" to="33407213" priority="3" type="highway.residential" numLanes="1" speed="8.33" shape="1303.42,1978.61 1292.84,2001.92 1288.55,2017.32 1287.17,2031.46 1288.72,2055.78" disallow="tram rail_urban rail rail_electric rail_fast ship"/>
    <edge id="-1089336211#0" from="9978707929" to="9978707931" priority="1" type="highway.service" numLanes="1" speed="5.56" shape="1735.56,841.73 1728.25,851.05 1714.17,863.63" allow="pedestrian delivery bicycle"/>
    <edge id="-1089336211#1" from="9978707928" to="9978707929" priority="1" type="highway.service" numLanes="1" speed="5.56" allow="pedestrian delivery bicycle"/>
    <edge id="-1089336212" from="9978707932" to="9978707935" priority="1" type="highway.service" numLanes="1" speed="5.56" shape="1786.69,880.95 1769.92,874.62 1765.63,878.29 1761.62,886.35" allow="pedestrian delivery bicycle"/>
    <edge id="-1090327474" from="9986907567" to="9986907568" priority="1" type="highway.service" numLanes="1" speed="5.56" allow="pedestrian delivery bicycle"/>
    <edge id="-1090331464" from="9986961813" to="9986961814" priority="1" type="highway.service" numLanes="1" speed="5.56" allow="pedestrian delivery bicycle"/>
    <edge id="-1090331468" from="9986968528" to="9986968527" priority="1" type="highway.service" numLanes="1" speed="5.56" allow="pedestrian delivery bicycle"/>
    <edge id="-1090333047" from="9986952282" to="6302057810" priority="1" type="highway.service" numLanes="1" speed="5.56" shape="3691.35,1409.25 3690.83,1400.71 3697.10,1396.05" allow="pedestrian delivery bicycle"/>
    <edge id="-1090333049" from="9986952287" to="9986952295" priority="1" type="highway.service" numLanes="1" speed="5.56" shape="3845.47,1294.48 3820.84,1291.67 3818.65,1292.72 3817.28,1294.31 3816.26,1299.98 3816.74,1302.32 3818.53,1303.87 3821.91,1305.00 3844.12,1308.30" allow="pedestrian delivery bicycle"/>
    <edge id="-1090335174" from="9986975185" to="cluster_592310094_9986975183" priority="1" type="highway.service" numLanes="1" speed="5.56" shape="3168.87,1509.30 3183.09,1498.51 3201.50,1481.57" allow="pedestrian delivery bicycle"/>
    <edge id="-1090345721#1" from="9987087115" to="9987087116" priority="1" type="highway.service" numLanes="1" speed="5.56" shape="2734.93,1860.21 2727.90,1867.95 2726.53,1869.46" allow="pedestrian delivery bicycle"/>
    <edge id="-1090345722#1" from="9987088017" to="9987088018" priority="1" type="highway.service" numLanes="1" speed="5.56" shape="2721.01,1846.12 2712.75,1855.38 2711.42,1856.87" allow="pedestrian delivery bicycle"/>
    <edge id="-1090345723#1" from="9987088019" to="9987088020" priority="1" type="highway.service" numLanes="1" speed="5.56" shape="2707.98,1832.33 2698.21,1843.31 2696.92,1844.77" allow="pedestrian delivery bicycle"/>
    <edge id="-1090345724" from="9987088023" to="9987088021" priority="1" type="highway.service" numLanes="1" speed="5.56" shape="2689.84,1824.14 2695.45,1817.49 2681.94,1805.64" allow="pedestrian delivery bicycle"/>
    <edge id="-1090598832" from="9989188805" to="cluster_1426982336_1613276075_262380045_28123169_842377727_9989188803" priority="1" type="highway.service" numLanes="1" speed="5.56" shape="3586.98,2462.95 3592.97,2493.59 3593.80,2496.41 3597.77,2509.96 3600.12,2517.94" allow="pedestrian delivery bicycle"/>
    <edge id="-1090603229" from="9989237607" to="cluster_380510879_9989237606" priority="1" type="highway.service" numLanes="1" speed="5.56" shape="3466.34,2583.75 3444.31,2587.28" allow="pedestrian delivery bicycle"/>
    <edge id="-1090604891" from="9989274043" to="9989274041" priority="1" type="highway.service" numLanes="1" speed="5.56" shape="3450.68,3053.84 3466.53,3051.18 3473.25,3050.91" allow="pedestrian delivery bicycle"/>
    <edge id="-109063044#1" from="cluster_1249671689_4081681852" to="1352598" priority="3" type="highway.residential" numLanes="1" speed="8.33" shape="3189.70,2213.60 3189.07,2206.56 3186.32,2169.27 3185.38,2163.07" disallow="tram rail_urban rail rail_electric rail_fast ship"/>
    <edge id="-1090865106" from="2198091486" to="2198091485" priority="1" type="highway.service" numLanes="1" speed="5.56" allow="pedestrian delivery bicycle"/>
    <edge id="-1091932753" from="10000373473" to="10000373472" priority="1" type="highway.service" numLanes="1" speed="5.56" allow="pedestrian delivery bicycle"/>
    <edge id="-1091935018" from="10000438484" to="10000438487" priority="1" type="highway.service" numLanes="1" speed="5.56" allow="pedestrian delivery bicycle"/>
    <edge id="-1091935019#0" from="10000438487" to="10000438488" priority="1" type="highway.service" numLanes="1" speed="5.56" allow="pedestrian delivery bicycle"/>
    <edge id="-1091935019#1" from="10000438485" to="10000438487" priority="1" type="highway.service" numLanes="1" speed="5.56" shape="2899.93,2486.24 2875.11,2486.83 2871.50,2485.54" allow="pedestrian delivery bicycle"/>
    <edge id="-1091935020#0" from="10000438488" to="10000438490" priority="1" type="highway.service" numLanes="1" speed="5.56" shape="2855.44,2486.75 2855.63,2490.36 2855.91,2496.34" allow="pedestrian delivery bicycle"/>
    <edge id="-1091935020#1" from="10000438489" to="10000438488" priority="1" type="highway.service" numLanes="1" speed="5.56" allow="pedestrian delivery bicycle"/>
    <edge id="-1092219970" from="10003087626" to="cluster_10003087624_7929608475" priority="1" type="highway.service" numLanes="1" speed="5.56" shape="1473.78,1499.53 1472.35,1505.37 1471.91,1532.50" allow="pedestrian delivery bicycle"/>
    <edge id="-1092219975" from="10003087643" to="cluster_10003087644_1420018515_359227" priority="1" type="highway.service" numLanes="1" speed="5.56" shape="1642.31,1215.11 1666.85,1140.48 1670.18,1129.53" allow="pedestrian delivery bicycle"/>
    <edge id="-1092219976" from="10003087646" to="10003087645" priority="1" type="highway.service" numLanes="1" speed="5.56" allow="pedestrian delivery bicycle"/>
    <edge id="-1092220575" from="10003073081" to="10003073083" priority="1" type="highway.service" numLanes="1" speed="5.56" shape="2103.79,1470.06 2100.19,1479.22 2114.90,1486.59" allow="pedestrian delivery bicycle"/>
    <edge id="-1092431396" from="10004867903" to="10004867902" priority="1" type="highway.service" numLanes="1" speed="5.56" allow="pedestrian delivery bicycle"/>
    <edge id="-1092431397" from="10004867904" to="8430314595" priority="1" type="highway.service" numLanes="1" speed="5.56" shape="1133.00,2053.08 1132.53,2016.04 1159.75,2014.89 1164.08,2011.49" allow="pedestrian delivery bicycle"/>
    <edge id="-1092435501" from="10004909664" to="10004909665" priority="1" type="highway.service" numLanes="1" speed="5.56" allow="pedestrian delivery bicycle"/>
    <edge id="-1092435502#0" from="10004909665" to="10004909673" priority="1" type="highway.service" numLanes="1" speed="5.56" shape="1332.51,2623.88 1343.79,2675.17 1327.40,2677.93" allow="pedestrian delivery bicycle"/>
    <edge id="-1092435502#1" from="10004909666" to="10004909665" priority="1" type="highway.service" numLanes="1" speed="5.56" shape="1359.67,2673.07 1358.46,2658.44 1356.62,2644.91 1345.94,2645.91 1341.29,2614.63 1331.36,2618.68 1332.51,2623.88" allow="pedestrian delivery bicycle"/>
    <edge id="-110927132#0" from="1265004329" to="1265004382" priority="1" type="highway.service" numLanes="1" speed="5.56" allow="pedestrian delivery bicycle"/>
    <edge id="-110927132#1" from="1265004320" to="1265004329" priority="1" type="highway.service" numLanes="1" speed="5.56" allow="pedestrian delivery bicycle"/>
    <edge id="-110927134" from="1265004335" to="1265004353" priority="1" type="highway.service" numLanes="1" speed="5.56" shape="3016.47,2544.84 3013.88,2528.33 3002.77,2531.56" allow="pedestrian delivery bicycle"/>
    <edge id="-115644431#1" from="1305956232" to="1305956234" priority="1" type="highway.service" numLanes="1" speed="5.56" shape="1904.51,1065.54 1916.11,1072.03 1931.19,1081.09 1933.48,1082.85 1934.69,1086.76 1928.50,1097.83 1923.75,1106.31 1921.34,1110.62 1917.26,1115.31" allow="pedestrian delivery bicycle"/>
    <edge id="-116604717#2" from="1314147233" to="cluster_1314147231_3580424211" priority="1" type="highway.service" numLanes="1" speed="5.56" shape="1763.68,1596.66 1758.88,1594.91 1730.67,1584.56" allow="pedestrian delivery bicycle"/>
    <edge id="-119317767#1" from="cluster_434325629_713717934" to="1341075012" priority="1" type="highway.footway" numLanes="1" speed="2.78" shape="3767.90,2917.93 3789.74,2918.71 3802.24,2919.18" width="2.00" allow="pedestrian bus">
        <param key="ref" value="Bussteig A"/>
    </edge>
    <edge id="-119555034#4" from="1342988629" to="cluster_1342988564_7446935411" priority="1" type="highway.service" numLanes="1" speed="5.56" shape="875.05,2237.89 875.24,2244.49 875.14,2245.28 874.86,2247.72 871.12,2252.11 867.72,2259.32 866.98,2264.75 867.66,2270.30 870.79,2278.08 874.28,2283.51 875.91,2287.34 874.37,2306.71 874.44,2309.49 874.87,2332.66" allow="pedestrian delivery bicycle"/>
    <edge id="-120404648#0" from="364158" to="357124" priority="2" type="highway.living_street" numLanes="1" speed="2.78" shape="1598.49,900.24 1606.31,904.84 1608.92,908.15 1646.98,930.26" disallow="tram rail_urban rail rail_electric rail_fast ship"/>
    <edge id="-120404648#1" from="1350142732" to="364158" priority="2" type="highway.living_street" numLanes="1" speed="2.78" disallow="tram rail_urban rail rail_electric rail_fast ship"/>
    <edge id="-120404650" from="357115" to="1350142732" priority="3" type="highway.residential" numLanes="1" speed="8.33" shape="1472.71,831.43 1535.10,868.67 1567.72,886.83 1573.77,889.66 1592.59,897.17" disallow="tram rail_urban rail rail_electric rail_fast ship"/>
    <edge id="-121094870" from="1356376842" to="1356376763" priority="1" type="highway.service" numLanes="1" speed="5.56" shape="868.06,2043.55 818.76,2031.24 811.33,2020.05 809.02,2007.98 812.81,1954.37 832.78,1883.58 825.49,1880.01" allow="pedestrian delivery bicycle"/>
    <edge id="-121935993#0" from="cluster_2045228112_2863599440_455959389" to="1363743262" priority="3" type="highway.residential" numLanes="1" speed="13.89" shape="3624.17,2075.02 3636.96,2072.80" disallow="tram rail_urban rail rail_electric rail_fast ship"/>
    <edge id="-121935993#3" from="1363743264" to="cluster_2045228112_2863599440_455959389" priority="3" type="highway.residential" numLanes="1" speed="13.89" shape="3601.94,2077.77 3613.55,2076.55" disallow="tram rail_urban rail rail_electric rail_fast ship"/>
    <edge id="-121935993#4" from="254348340" to="1363743264" priority="3" type="highway.residential" numLanes="1" speed="13.89" shape="3546.50,2072.68 3579.85,2078.01 3601.94,2077.77" disallow="tram rail_urban rail rail_electric rail_fast ship"/>
    <edge id="-121935993#5" from="643028777" to="254348340" priority="3" type="highway.residential" numLanes="1" speed="13.89" disallow="tram rail_urban rail rail_electric rail_fast ship"/>
    <edge id="-121935993#6" from="254348272" to="643028777" priority="3" type="highway.residential" numLanes="1" speed="13.89" shape="3497.69,2066.38 3506.70,2067.29 3526.13,2069.92" disallow="tram rail_urban rail rail_electric rail_fast ship"/>
    <edge id="-121936006#0" from="1363743105" to="1363743084" priority="1" type="highway.service" numLanes="1" speed="5.56" allow="pedestrian delivery bicycle"/>
    <edge id="-121936006#1" from="1363743108" to="1363743105" priority="1" type="highway.service" numLanes="1" speed="5.56" allow="pedestrian delivery bicycle"/>
    <edge id="-122194344" from="1366213209" to="1366213151" priority="1" type="highway.service" numLanes="1" speed="5.56" allow="pedestrian delivery bicycle"/>
    <edge id="-122194349#0" from="7121956371" to="300602551" priority="1" type="highway.service" numLanes="1" speed="5.56" allow="pedestrian delivery bicycle"/>
    <edge id="-122194349#1" from="cluster_1366213297_357150" to="7121956371" priority="1" type="highway.service" numLanes="1" speed="5.56" shape="1094.82,1228.54 1072.94,1221.60 1019.45,1205.81" allow="pedestrian delivery bicycle"/>
    <edge id="-122194350" from="1366213195" to="299808249" priority="1" type="highway.service" numLanes="1" speed="5.56" shape="690.51,954.38 705.17,955.56 719.57,911.82" allow="pedestrian delivery bicycle"/>
    <edge id="-122313834#0" from="4887868302" to="cluster_4887868308_8284444180_8284444194" priority="3" type="highway.residential" numLanes="1" speed="8.33" shape="1342.90,1083.72 1311.65,1176.64 1308.78,1182.43" disallow="tram rail_urban rail rail_electric rail_fast ship"/>
    <edge id="-122313834#1" from="763178182" to="4887868302" priority="3" type="highway.residential" numLanes="1" speed="8.33" disallow="tram rail_urban rail rail_electric rail_fast ship"/>
    <edge id="-122313834#2" from="359092" to="763178182" priority="3" type="highway.residential" numLanes="1" speed="8.33" shape="1359.33,1039.76 1354.34,1052.49 1347.95,1070.06" disallow="tram rail_urban rail rail_electric rail_fast ship"/>
    <edge id="-122313835#0" from="359091" to="359092" priority="3" type="highway.residential" numLanes="1" speed="8.33" shape="1387.41,968.62 1363.77,1027.99 1359.33,1039.76" disallow="tram rail_urban rail rail_electric rail_fast ship"/>
    <edge id="-122313835#2" from="3264216360" to="359091" priority="3" type="highway.residential" numLanes="1" speed="8.33" shape="1409.20,907.38 1408.69,908.80 1405.18,918.68 1387.41,968.62" disallow="tram rail_urban rail rail_electric rail_fast ship"/>
    <edge id="-122313835#4" from="357123" to="3264216360" priority="3" type="highway.residential" numLanes="1" speed="8.33" shape="1411.74,902.83 1410.03,905.89 1409.20,907.38" disallow="tram rail_urban rail rail_electric rail_fast ship"/>
    <edge id="-123354431" from="cluster_1375947702_2518310930_273218877_293789286" to="1131131356" priority="1" type="highway.service" numLanes="1" speed="5.56" shape="2840.46,1473.95 2835.16,1470.64 2824.63,1464.99 2818.18,1461.28 2813.88,1461.04 2790.15,1489.42 2790.80,1496.26 2796.29,1501.43 2800.64,1504.63 2811.09,1510.56 2816.34,1513.31" allow="pedestrian delivery bicycle"/>
    <edge id="-124177563#1" from="1382824163" to="2670707178" priority="3" type="highway.residential" numLanes="1" speed="13.89" shape="3884.23,946.69 3889.00,944.67 3894.57,942.18 3895.92,936.04 3896.45,933.65" disallow="tram rail_urban rail rail_electric rail_fast ship"/>
    <edge id="-124329997#1" from="1403601645" to="1384164394" priority="1" type="highway.service" numLanes="1" speed="5.56" shape="3921.20,1154.69 3921.79,1149.02 3916.40,1145.03 3908.83,1144.12 3902.45,1145.42 3896.91,1145.74 3890.65,1150.71 3886.34,1166.88 3882.64,1179.75" allow="pedestrian delivery bicycle"/>
    <edge id="-124894178#1" from="9986907568" to="9986907569" priority="1" type="highway.service" numLanes="1" speed="5.56" shape="3765.05,797.05 3768.04,801.69 3769.88,807.15 3771.97,822.70 3781.93,821.43" allow="pedestrian delivery bicycle"/>
    <edge id="-124895952#0" from="cluster_3425212685_3425212687_3425212691_3425214893" to="1388701290" priority="1" type="highway.service" numLanes="1" speed="5.56" shape="3742.75,1179.53 3742.63,1181.39 3740.57,1213.90" allow="pedestrian delivery bicycle"/>
    <edge id="-124895952#4" from="1158665492" to="cluster_3425212685_3425212687_3425212691_3425214893" priority="1" type="highway.service" numLanes="1" speed="5.56" shape="3747.08,1111.43 3743.69,1164.86" allow="pedestrian delivery bicycle"/>
    <edge id="-125388372#0" from="1394847127" to="1392828896" priority="1" type="highway.service" numLanes="1" speed="5.56" shape="928.51,1137.37 930.62,1130.11 912.64,1124.22" allow="pedestrian delivery bicycle"/>
    <edge id="-125388372#1" from="300602546" to="1394847127" priority="1" type="highway.service" numLanes="1" speed="5.56" shape="915.08,1189.53 919.86,1169.97 928.51,1137.37" allow="pedestrian delivery bicycle"/>
    <edge id="-125618676#1" from="300602546" to="1394847118" priority="1" type="highway.service" numLanes="1" speed="5.56" shape="915.08,1189.53 912.56,1195.63 904.09,1223.37 901.17,1250.53" allow="pedestrian delivery bicycle"/>
    <edge id="-128508148" from="8332253107" to="1420048725" priority="1" type="highway.service" numLanes="1" speed="5.56" shape="3874.45,1392.74 3876.86,1374.49 3886.32,1367.89 3891.89,1366.90 3899.13,1368.68 3902.81,1371.25 3908.46,1379.77" allow="pedestrian delivery bicycle"/>
    <edge id="-129863885#0" from="1432014045" to="1432014050" priority="1" type="highway.service" numLanes="1" speed="5.56" shape="2687.65,2342.54 2718.25,2346.00 2729.34,2347.27 2733.82,2347.85" allow="pedestrian delivery bicycle"/>
    <edge id="-129863885#1" from="1432014046" to="1432014045" priority="1" type="highway.service" numLanes="1" speed="5.56" shape="2684.60,2342.92 2673.98,2345.43 2671.17,2351.67 2671.07,2367.38 2686.59,2367.71 2687.65,2342.54" allow="pedestrian delivery bicycle"/>
    <edge id="-129863885#2" from="1432014045" to="1432014046" priority="1" type="highway.service" numLanes="1" speed="5.56" allow="pedestrian delivery bicycle"/>
    <edge id="-130147328" from="364103" to="364097" priority="3" type="highway.residential" numLanes="1" speed="8.33" disallow="tram rail_urban rail rail_electric rail_fast ship"/>
    <edge id="-130147329#0" from="7619588404" to="364100" priority="3" type="highway.residential" numLanes="1" speed="8.33" disallow="tram rail_urban rail rail_electric rail_fast ship"/>