<?xml version="1.0"?>

<routes> <!-- The opening tag -->

   <!-- Vehicle types -->
   <vType id="passenger" length="5.0" width="2.0" maxSpeed="70.0" accel="2.6" decel="4.5" sigma="0.5"/>

   <!-- Routes + associated vehicles & flows -->
   <route id="trip-0" color="Magenta" edges="376717641#1 -34896249#1 26784645 51081171#1 51081171#2 906649715 751168040#0 751168040#1 115106777#0 115106777#2 27404213#0 118041104#0 26704778#1 26704778#8 115106778#0 115106778#2 115106778#3 26784170#0 26784170#3 667410641#0 154502579#0 667410645 667410646#0 667410646#1 27115018#0 198171539#0 198171539#2 169465734#1 169465735#1 501456678 169453887#0 402179132 37873574 175589820 315921077#0 315921077#1 154755110#0 86415848 175589819#0 175589819#1 175589819#2 154333001#1 169453888#0 145345137#0"/>
   <vehicle id="vehicle-0" type="passenger" color="Yellow" depart="0.0" route="trip-0"/>

   <route id="trip-1" color="Magenta" edges="-37744760 37744760 23015816#0 23015816#2 543524596#4 34998405 37873571#0 37873571#1 37873571#2 187070213#0 4400324#0 169453889#0-AddedOnRampEdge 169453889#0 203971501#0 10318488#0 10318488#2 4400322#0 39606301 189054412 78419224#1 401880207 1065789417 5667170#0 203486081 48654842 51348099 401880206 313982939 623090131 252773096#0 135788128#1 33814452#0 33814452#1 33814452#2 33814452#4 33814452#5 349603488#0 349603488#1 4391050#0 4391050#2 349603490#0 620340717#0 -620340716 -620340715 -154743411#2 -620340714#2 -180723491#1 -180723489#2 -180723490 -620340712#1 600108058#0 4378522#0 4378522#1 4378522#3"/>
   <vehicle id="vehicle-1" type="passenger" color="Yellow" depart="0.01" route="trip-1"/>

   <route id="trip-2" color="Magenta" edges="32021852#1 52527875#0 458044845 205991620#0 581383164#0 581383164#1 581383164#2 -581383164#4 -581383164#1 -581383164#0 -205991620#0 -458044845 -32021850#2 -32021849#2 -32021849#0 166603924#0 166603924#5 609569104#0 4004111#0 4004111#2 51857078#0 51857078#3 160312590#0 160312590#1 160312590#2 322456246#0 322456246#1 322456248#0 322456245 322456250#0 150031245#0 47426157 135593540#0 399060413#0 399060413#1 947308251#0 467758206#0 115106779#0 -28523795#2 -541566702#2 -541566703#2 -32064261 -32064260#8 -32064260#3 -219098056 219098057#0 206080341#0 206080341#3 -37347656 4045160#0"/>
   <vehicle id="vehicle-2" type="passenger" color="Yellow" depart="0.02" route="trip-2"/>

   <route id="trip-3" color="Magenta" edges="8682797#0 8682797#1 154755098 129318319#1 129318319#3 129316657#1 129316656 30777828#0 30777829#0 30777829#1 35282302 33444803#0 39606300 33302833 147144448 23568396#2 10318490#0 136413965#0 667410648 145345141#0 1065802292 667410647 150039007#0 150039007#1 150039007#2 667410644#0 -8196629#9 -8196629#4 -8196629#3 26783988 25677606#1 -25677606#1"/>
   <vehicle id="vehicle-3" type="passenger" color="Yellow" depart="0.03" route="trip-3"/>

   <route id="trip-4" color="Magenta" edges="39606300 33302833 147144449 5667165#0 768602479 25071937 4400322#0 39606301 189054412 78419224#1 401880207 1065789417 5667170#0 203486081 48654842 51348099 401880206 313982939 623090131 252773096#0 135788128#1 33814452#0 33814452#1 33814452#2 33814452#4 33814452#5 349603488#0 349603488#1 4391050#0 4391050#2 349603490#0 620340717#0 -620340716 -620340715 -154743411#2 -620340714#2 -180723491#1 -180723489#2 -180723490 -620340712#1 600108058#0"/>
   <vehicle id="vehicle-4" type="passenger" color="Yellow" depart="0.04" route="trip-4"/>

   <route id="trip-5" color="Magenta" edges="23799819#1 4400294 4400295#0 -205044667 53212167#0 154755115#1 147148321 23493179#0 50629722 129833340#0 129833341#0 154755117#0 23800191#0 23800191#1 23800191#2 234546135 23800141 23800192 186646384#0 186646384#4 186646384#6 180723491#0"/>
   <vehicle id="vehicle-5" type="passenger" color="Yellow" depart="0.05" route="trip-5"/>

   <route id="trip-6" color="Magenta" edges="-23691831#0 23691831#0 23691831#1 322860621#0 322860621#1 303244424 303244422#0 188052918#1 154755085#0 154755085#1 83703647#1 83703647#2 83703647#3 83703647#4 83703645 23493040 64488045 917044790 122989592#0 542512895 326986553 154755115#1 147148321 23493179#0 50629722 129833340#0 129833341#0 917044794#0 129833347 218723887 2829323#0 1072961179#0 32856811#0 154755082#0 154755082#3"/>
   <vehicle id="vehicle-6" type="passenger" color="Yellow" depart="0.06" route="trip-6"/>

   <route id="trip-7" color="Magenta" edges="173492580#2 173492580#3 41910184#0 41910184#1 241660955#19 241660955#22 241660955#23 130160207#0 130160207#3 31864813#9 4146755#0 4146756#0 37191915#0 37191915#1 37191915#2 -37191915#2 -37191915#1 -37191915#0"/>
   <vehicle id="vehicle-7" type="passenger" color="Yellow" depart="0.07" route="trip-7"/>

   <route id="trip-8" color="Magenta" edges="667410648 145345141#0 1065802292 667410647 150039007#0 150039007#1 150039007#2 667410644#0 9823971#0 9823971#1 9823971#2 9823971#3 857811041#0 51081171#0 51081171#1 51081171#2 906649715 751168040#0 751168040#1 5667174#0 5667174#2 37347656 219018758#0 32011636#0 51857159 219098056 32064260#0 32064260#5 32064261 541566703#0 28523803#0 541566701 144935692#0 144935692#1 144935692#2 166234884 166222937#0 389193083#1"/>
   <vehicle id="vehicle-8" type="passenger" color="Yellow" depart="0.08" route="trip-8"/>

   <route id="trip-9" color="Magenta" edges="206149607#0 51348105#0 51348105#1 950274727#0 159281728#0 252773097 623090133#2 203486082 200763473 33386769#0 33444803#0 39606300 33302833 147144449 25071938 617194816 154755085#0 154755085#1 83703647#1 83703647#2 83703647#3 83703647#4 83703645 23493040 64488045 917044790 122989592#0 542512895 326986553 23493176#0 154755112#0 154755112#3 154755096 -8225101 -154755102#3 -154755102#1 -154755102#0 4353628#0 4353628#1 26811376#0 154755095#1 154755094#0 51534019#0 8225127 8225128#0 8225128#1 985517967"/>
   <vehicle id="vehicle-9" type="passenger" color="Yellow" depart="0.09" route="trip-9"/>

   <route id="trip-10" color="Magenta" edges="475663109#0 908924988#0 32324543#0 28523803#0 541566701 144935692#0 144935692#1 144935692#2 167324659#0 55940134#0 186463490 930736467 930736468 835792564 930736464 930736465 154755102#0 154755102#1 154755102#2 -8096211#2 150031207#8 23493261#0 28542995#0 303244432#0 303244432#1 734784830#0 109063043 23493260#0 23493260#4 23493260#5 1065802294 303244426 768603506 48587065#0 48587065#1 146789540#0 146789540#1 768602479 25071937 4400322#0 39606301 189054412 78419224#1 401880207 1065789417 5667170#0 203486081 48654842 51348099 401880206 313982939 623090131 51348102#0 252773092 -303245745 -751197246 33805058#0 306387100 372313445#0 632980691 33971538#0 31901074 391820861"/>
   <vehicle id="vehicle-10" type="passenger" color="Yellow" depart="0.1" route="trip-10"/>

   <route id="trip-11" color="Magenta" edges="203971499#0 136413965#0 667410648 145345141#0 1065802292 667410647 150039007#0 150039007#1 150039007#2 667410644#0 154502579#0 667410645 667410646#0 667410646#1 4534554#0 4534554#1"/>
   <vehicle id="vehicle-11" type="passenger" color="Yellow" depart="0.11" route="trip-11"/>

   <route id="trip-12" color="Magenta" edges="206149607#0 51348105#0 51348105#1 950274727#0 159281728#0 252773097 623090133#2 203486082 200763473 33386769#0 33444803#0 39606300 4400306#0 4400309 40236119 33469672"/>
   <vehicle id="vehicle-12" type="passenger" color="Yellow" depart="0.12" route="trip-12"/>

   <route id="trip-13" color="Magenta" edges="5667168#0 -32064260#3 -219098056 219098057#0 206080341#0 206080341#3 -37347656 4045160#0 4045160#2 4045160#3 37333602#0 37333602#4 383178036#0 383178036#1 8196627 154755084 35049297#0 8196681#0 8196681#2 8196681#3 8196681#4"/>
   <vehicle id="vehicle-13" type="passenger" color="Yellow" depart="0.13" route="trip-13"/>

   <route id="trip-14" color="Magenta" edges="23493807#0 1063103289 133872755 23694447 130752274#0 24592789#0 -154874104 -176385764#1 -176385764#0 -154874107#2 -131959462#1 -391820861 -31901074 -33971538#1 -24592809 -372313445#1 -306387100 -33805058#1 24231208#0 206149607#0 51348105#0 51348105#1 950274727#0 135788128#1 33814452#0 33814452#1 33814452#2 33814452#4 33814452#5 349603488#0 349603488#1 527125160#0 7996807#1"/>
   <vehicle id="vehicle-14" type="passenger" color="Yellow" depart="0.14" route="trip-14"/>

   <route id="trip-15" color="Magenta" edges="150031203#0 150031227 150031230 542512892#0 542512892#1 150031207#0 150031207#3 150031207#5 150031207#8 23493261#0 28542995#0 303244432#0 303244432#1 734784830#0 109063043 23493260#0 23493260#4 23493260#5 1065802294 303244426 768603506 48587065#0 48587065#1 146789540#0 146789540#1 768602479 25071937 4400322#0 39606301 189054412 78419224#1 401880207 1065789417 5667170#0 9831835#0 24233181#0 24233181#1 536910374"/>
   <vehicle id="vehicle-15" type="passenger" color="Yellow" depart="0.15" route="trip-15"/>

   <route id="trip-16" color="Magenta" edges="543524590#0 543524593 925248670#0 543524596#0 543524596#2 543524596#4 34998405 37873571#0 37873571#1 37873571#2 187070213#0 4400324#0 169453889#0-AddedOnRampEdge 169453889#0 203971501#0 10318488#0 10318488#2 4400322#0 39606301 189054412 78419224#1 401880207 1065789417 5667170#0 203486081 48654842 51348099 401880206 313982939 623090131 252773096#0 135788128#1 33814452#0 33814452#1 33814452#2 33814452#4 33814452#5 349603488#0 349603488#1 4391050#0 4391050#2 349603490#0 -389119032 -4400205#2 6186310 4979109 213185325#0 213185325#1 213185325#3 213185325#4 213185325#5 213185325#6"/>
   <vehicle id="vehicle-16" type="passenger" color="Yellow" depart="0.16" route="trip-16"/>

   <route id="trip-17" color="Magenta" edges="393422408#0 393422408#1 4400215#0 150031207#5 150031207#8 23493261#0 28542995#0 303244432#0 303244432#1 734784830#0 109063043 23493260#0 23493260#4 23493260#5 1065802294 303244426 768603507 37276375 367049196#0 10318490#0 136413965#0 667410648 169453890#0 145345146#0 169453895 169453894 22949651 381068419"/>
   <vehicle id="vehicle-17" type="passenger" color="Yellow" depart="0.17" route="trip-17"/>

   <route id="trip-18" color="Magenta" edges="136412533 -136412533 22873507#0 22873507#1 22873507#3 22873507#4 187240666#0 667410647 150039007#0 150039007#1 150039007#2 667410644#0 9823971#0 9823971#1 9823971#2 9823971#3 857811041#0 51081171#0 51081171#1 51081171#2 906649715 751168040#0 751168040#1 5667174#0 5667174#2 37347656 219018758#0 32011636#0 51857159 219098056 32064260#0 32064260#5 32064261 541566703#0 -32324543#2 -908924988#2 -149583694#2 -60966951 -27431130 -32038056#6 -28198821#8 -28198821#5 -28198821#4 130165205#0 130165205#2 28523856#0"/>
   <vehicle id="vehicle-18" type="passenger" color="Yellow" depart="0.18" route="trip-18"/>

   <route id="trip-19" color="Magenta" edges="23686956#0 23686956#1 23686956#2 22873507#0 22873507#1 22873507#3 22873507#4 187240666#0 667410647 150039007#0 150039007#1 150039007#2 667410644#0 9823971#0 9823971#1 9823971#2 9823971#3 857811041#0 51081171#0 51081171#1 51081171#2 906649715 751168040#0 751168040#1 5667174#0 5667174#2 37347656 219018758#0 32011636#0 51857159 219098056 32064260#0 32064260#5 32064261 541566703#0 541566702#0 28523795#0 4004115#0 36590986#1 751868780#0 28542897#1 135556213 322456247 322456251#0 27404830#0 32857154 322456249#2 322456244#3 322456244#9 584423880#0 -609569104#0 -166603924#5 -166603924#4 32021849#0 32021849#2 32021850#0 458044845 205991620#0 581383164#0 581383164#1"/>
   <vehicle id="vehicle-19" type="passenger" color="Yellow" depart="0.19" route="trip-19"/>

   <route id="trip-20" color="Magenta" edges="332017311 237420008#0 219188460#2 219188460#4 219188460#5 219188460#6 315921078#0 315921078#1 154755110#0 86415860#0 86415860#1 88680005#1 203971499#0 203971501#0 727302499 4400318#0 4400318#2 4400318#3 48591635#0 23568429 48591634#0 48591634#1 50557487#0 50557487#1 188052918#1 154755085#0 154755085#1 83703647#1 83703647#2 83703647#3 83703647#4 83703645 23493040 64488045 917044790 122989592#0 542512895 326986553 23493176#0 154755112#0 154755112#3 154755096 -8225101 -154755102#3 -154755102#1 -154755102#0 4353628#0"/>
   <vehicle id="vehicle-20" type="passenger" color="Yellow" depart="0.2" route="trip-20"/>

   <route id="trip-21" color="Magenta" edges="-1086848625 1086848625 -28523868#10 -28523868#9 28523868#5 28523868#10 340337295#0 340337295#1 265984914#0 894292811 289753604 27115122#0 27115122#1 583283156#0 583283156#1 255094956#0 824267465 150031245#0 47426157 135593540#0 399060413#0 399060413#1 947308251#0 467758206#0 406217856#0 1072955734#0 1072955734#1 28542886#0 28542886#3 166222937#0 145474196#1 150039002#0 150039002#2 313981596 36454807#0 313981599#0"/>
   <vehicle id="vehicle-21" type="passenger" color="Yellow" depart="0.21" route="trip-21"/>

   <route id="trip-22" color="Magenta" edges="4400319 48587087 48587086#0 48587086#1 1075393377 100132117 30743982 44037603#0 44037603#1 32233474#0 142518656#1 38527899#0 30743981#0 117679358 303244429#0 303244424 23568269#0 23568269#2 146789538#0 146789538#1 145035674 23568275#0 37276375 37866520 -37866521 -83823403#2 -83823403#0 -83823409#1 -238511108#1 -238511108#0 -69366482 -238511107 -23015531#0 -8225109#3 -8225109#2 8225109#0"/>
   <vehicle id="vehicle-22" type="passenger" color="Yellow" depart="0.22" route="trip-22"/>

   <route id="trip-23" color="Magenta" edges="24037280 318067901#0 245991949#0 301750520 250959563 115849681#0 250959560"/>
   <vehicle id="vehicle-23" type="passenger" color="Yellow" depart="0.23" route="trip-23"/>

   <route id="trip-24" color="Magenta" edges="4390557#0 4390554#1 29217219#0 29217219#1 167324659#0 55940134#0 186463490 930736467 930736468 835792564 930736464 930736465 154755102#0 154755102#1 154755102#2 -8096211#2 150031207#8 23493261#0 28542995#0 303244432#0 303244432#1 734784830#0 109063043 23493260#0 23493260#4 23493260#5 1065802294 303244426 768603506 48587065#0 48587065#1 146789540#0 146789540#1 768602479 25071937 4400322#0 39606301 189054412 78419224#1 401880207 1065789417 5667170#0 9831835#0 24233181#0 24233181#1 23566855 23916033#0 -23915964 23915964"/>
   <vehicle id="vehicle-24" type="passenger" color="Yellow" depart="0.24" route="trip-24"/>

   <route id="trip-25" color="Magenta" edges="8682797#0 8682797#1 154755098 129318319#1 129318319#3 129316657#1 129316656 30777828#0 30777829#0 30777829#1 35282302 33444803#0 39606300 33302833 147144448 23568396#2 10318490#0 136413965#0 667410648 145345141#0 1065802292 667410647 150039007#0 150039007#1 150039007#2 667410644#0 9823971#0 9823971#1 9823971#2 9823971#3 857811041#0 51081171#0 51081171#1 51081171#2 906649715 751168040#0 751168040#1 115106777#0 115106777#2 4045160#0 4045160#2 4045160#3 42999417#0 42999417#3 42999417#6 28841605#0 32635135#0 -340443758#3 -340443758#2 -23328072#2 -23328072#1"/>
   <vehicle id="vehicle-25" type="passenger" color="Yellow" depart="0.25" route="trip-25"/>

   <route id="trip-26" color="Magenta" edges="25102283#5 25102283#6 25102283#7 8196629#2 8196629#3 8196629#4 8196629#5 154502579#0 667410645 667410646#0 667410646#1 27115018#0 198171539#0 198171539#2 169465734#1 169465735#1 501456678 169453887#0 4400324#0 169453889#0-AddedOnRampEdge 169453889#0 203971501#0 10318488#0 10318488#2 4400322#0 39606301 189054412 78419224#1 401880207 1065789417 5667170#0 203486081 48654842 51348099 401880206 313982939 623090131 252773096#0 135788128#1 33814452#0 33814452#1 33814452#2 33814452#4 33814452#5 349603488#0"/>
   <vehicle id="vehicle-26" type="passenger" color="Yellow" depart="0.26" route="trip-26"/>

   <route id="trip-27" color="Magenta" edges="1086848625 -28523868#10 -28523868#9 28523868#5 28523868#10 340337295#0 340337295#1 265984914#0 894292811 583283189 27115123#0 27115123#1 27115123#3 27115123#5 583283167#0 32038056#0 27431130 60966951 149583694#0 908924988#0 32324543#0 28523803#0 541566701 144935692#0 144935692#1 144935692#2 167324659#0 55940134#0 186463490 930736467 930736468 835792564 930736464 930736465 154755102#0 154755102#1 154755102#2 -8096211#2 150031207#8 23493261#0 28542995#0 303244432#0 303244432#1 734784830#0 109063043 23493260#0 23493260#4 23493260#5 1065802294 303244426 768603506 4400319 48587087 48587086#0 48587086#1 1075393377 100132117 30743982 44037603#0 44037603#1 32233474#0 142518656#1 23914009#0 23914009#1 23914009#2 24037280 82548195#0 373038379 154755092#0 44129592 154755105#0 154755105#1 6186582#2"/>
   <vehicle id="vehicle-27" type="passenger" color="Yellow" depart="0.27" route="trip-27"/>

   <route id="trip-28" color="Magenta" edges="150031211#2 150031232 -219098056 219098057#0 32011635#0 53265906#0 53265906#2 31694310 198147973#0 198147973#2 198147972 154755125#0 154755071 930736467 930736468 835792564 930736464 930736465 154755102#0 154755102#1 154755102#2 -8096211#2 150031207#8 23493261#0 28542995#0 303244432#0 303244432#1 23493181#0 23493181#3 917044790 122989592#0 542512895 326986553 4400297#0 205044667 53212168#0 23800804#1 -4400211#6 -4400211#5 -4400211#3"/>
   <vehicle id="vehicle-28" type="passenger" color="Yellow" depart="0.28" route="trip-28"/>

   <route id="trip-29" color="Magenta" edges="135593540#0 399060413#0 399060413#1 947308251#0 467758206#0 115106779#0 -28523795#2 -541566702#2 28523803#0 541566701 144935692#0 144935692#1 144935692#2"/>
   <vehicle id="vehicle-29" type="passenger" color="Yellow" depart="0.29" route="trip-29"/>

   <route id="trip-30" color="Magenta" edges="136412533 -136412533 -22873505#1 -22873505#0 200671461 533123612#0 203971501#0 10318488#0 10318488#2 4400322#0 39606301 189054412 78419225#0 33444803#0 39606300 4400306#0 4400309 40236119 29214406 -1020497837 -382219939#1"/>
   <vehicle id="vehicle-30" type="passenger" color="Yellow" depart="0.3" route="trip-30"/>

   <route id="trip-31" color="Magenta" edges="569968836#1 64487982#0 64487982#1 64487982#2 -48456085#1 -48456085#0 51348112#0 374831953#0 303245744 51348111 252773097 623090133#2 203486082 200763473 33386769#0 33444803#0 39606300 33302833 147144448 23568396#2 10318490#0 136413965#0 667410648 169453890#0 145345146#0 169453895 169453894 22949651 164158186 543524596#4 480054079 9872533#0 9872533#1 22598774 32011876#0 32011876#1 23013527#0 23013527#1 912471835"/>
   <vehicle id="vehicle-31" type="passenger" color="Yellow" depart="0.31" route="trip-31"/>

   <route id="trip-32" color="Magenta" edges="150031236 4401678 218930181 218895701 800616215#0 475663109#0 908924988#0 32324543#0 28523803#0 541566701 144935692#0 144935692#1 144935692#2 166234884 166222937#0 389193083#1 150031230 542512892#0 542512892#1 129833341#0 154755117#0 23800191#0 23800191#1 23800191#2 234546135 23800141 23800192 186646384#0 186646384#4 186646384#6 180723491#0 620340714#0 154743411#0 620340713 620340716 501460458#0 110967368#0 109539742#0 109539742#1 4391001#0 303245743 48456085#0 48456085#1 23567657#0 166155712#0 166155713#1 382219939#0 382219929"/>
   <vehicle id="vehicle-32" type="passenger" color="Yellow" depart="0.32" route="trip-32"/>

   <route id="trip-33" color="Magenta" edges="83703647#4 83703645 23493040 64488045 917044790 122989592#0 542512895 326986553 23493176#0 53212166#0 53212166#1 28542995#0 303244432#0 303244432#1 734784830#0 109063043 23493260#0 23493260#4 23493260#5 1065802294 303244426 768603506 4400319 48587087 48587086#0 48587086#1 1075393377 100132117 30743982 44037603#0 44037603#1 32233474#0 142518656#1 38527899#0 30743981#0 117679358 303244429#0 303244424 303244422#0"/>
   <vehicle id="vehicle-33" type="passenger" color="Yellow" depart="0.33" route="trip-33"/>

   <route id="trip-34" color="Magenta" edges="1071321412#0 4071776#0 4071776#2 4071776#3 4071776#5 4071776#7 1071321411#0 542512889#0 4071778#0 115106779#0 -28523795#2 -541566702#2 -541566703#2 -32064261 -32064260#8 -32064260#3 -219098056 219098057#0 206080341#0 206080341#3 -37347656 37347656"/>
   <vehicle id="vehicle-34" type="passenger" color="Yellow" depart="0.34" route="trip-34"/>

   <route id="trip-35" color="Magenta" edges="-28523868#3 130165209#1 130165208#0 130165208#1 37331979 28523862#0 28198821#0 28198821#5 28198821#6 32038056#0 27431130 60966951 149583691 -800616215#1 4401680 150031240#0 150031240#1 4401678"/>
   <vehicle id="vehicle-35" type="passenger" color="Yellow" depart="0.35" route="trip-35"/>

   <route id="trip-36" color="Magenta" edges="27404213#0 118041104#0 26704778#1 26704778#8 115106778#0 115106778#2 154755116#0 154755116#2 667410678#0 51081171#0 51081171#1 51081171#2 906649715 751168040#0 751168040#1 115106777#0 115106777#2 4045160#0 4045160#2 4045160#3 42999417#0 42999417#3 42999417#6 32021100#0 32021100#1 32021100#3 218930183#0 -218930183#3 -219018760#1 -219098062#1 -32037433 38967914#0 38967914#2 38967914#3 38967914#4"/>
   <vehicle id="vehicle-36" type="passenger" color="Yellow" depart="0.36" route="trip-36"/>

   <route id="trip-37" color="Magenta" edges="219188460#6 315921078#0 315921078#1 154755110#0 86415860#0 86415860#1 88680005#1 203971499#0 203971501#0 10318488#0 10318488#2 4400322#0 39606301 189054412 78419224#1 401880207 1065789417 5667170#0 1065789418 33275106#0 154755098 129318319#1 129318319#3 -309839858"/>
   <vehicle id="vehicle-37" type="passenger" color="Yellow" depart="0.37" route="trip-37"/>

   <route id="trip-38" color="Magenta" edges="-154743411#2 154743411#0 620340713 620340716 501460458#0 110967368#0 109539742#0 109539742#1 4391001#0 303245743 51348112#0 374831953#0 303245744 51348111 252773097 623090133#2 203486082 200763473 33386769#0 33444803#0 39606300 33302833 147144448 23568396#2 10318490#0 203971501#0 727302499 4400318#0 4400318#2 4400318#3 48591635#0 23568429 145035674"/>
   <vehicle id="vehicle-38" type="passenger" color="Yellow" depart="0.38" route="trip-38"/>

   <route id="trip-39" color="Magenta" edges="150031262#0 219098058 198147972 154755125#0 154755071 930736467 930736468 835792564 930736464 930736465 154755102#0 154755102#1 154755102#2 -8096211#2 150031207#8 23493261#0 28542995#0 303244432#0 303244432#1 734784830#0 109063043 23493260#0 23493260#4 23493260#5 1065802294 303244426 768603507 37276375 367049196#0 10318490#0 203971501#0 727302499 4400318#0 4400318#2 4400318#3 48591635#0 23568429 48591634#0"/>
   <vehicle id="vehicle-39" type="passenger" color="Yellow" depart="0.39" route="trip-39"/>

   <route id="trip-40" color="Magenta" edges="995578819#0 995578819#1 187965761#1 187965761#2 187965761#4 187965761#5 3065455 23800664 129861628#0 129861628#1 129861628#3 129833340#0 129833341#0 917044794#0 129833347 218723887 2829323#0 4401673#5 4401673#7 4401673#8 612188894#1 612188894#3 -144935692#1 -144935692#0 -541566701 -28523803#2 -32324543#2 -908924988#2 -149583694#2 -60966951 -27431130 -32038056#6 -28198821#8 -28198821#5 -28198821#4 130165205#0 130165205#2 28523856#0 32038441#0 -28198797#1 4137102 5005007#0 5005006"/>
   <vehicle id="vehicle-40" type="passenger" color="Yellow" depart="0.4" route="trip-40"/>

   <route id="trip-41" color="Magenta" edges="4400294 4400295#0 53212168#0 23800804#1 -4400211#6 -4400211#5 -4400211#3 -4400211#2 -4400211#1 130997388#0 130997388#1 130659365 393422408#0 393422408#1 4400215#0 150031207#5 150031207#8 23493261#0 28542995#0 303244432#0 303244432#1 734784830#0 109063043 23493260#0 23493260#4 23493260#5 1065802294 303244426 768603506 4400319 48587087 48587086#0 48587086#1 1075393377 100132117 30743982 44037603#0 44037603#1 115844479#0 301750520 250959563 115849681#0 250959560 47892504#0 63530469 288162959 -30095780#1 -30095780#0"/>
   <vehicle id="vehicle-41" type="passenger" color="Yellow" depart="0.41" route="trip-41"/>

   <route id="trip-42" color="Magenta" edges="-28523868#4 -28523868#3 28523868#1 28523868#4 28523868#5 28523868#10 340337295#0 340337295#1 265984914#0 894292811 289753604 27115122#0 27115122#1 583283156#0 583283156#1 255094956#0 824267465 255094955#0 255094955#2 2936806#0 113160347#0 113160347#2 255104326#0 272288776#0 36590984#0 4882054#0 4882052 -4882043#1"/>
   <vehicle id="vehicle-42" type="passenger" color="Yellow" depart="0.42" route="trip-42"/>

   <route id="trip-43" color="Magenta" edges="4537862#0 24231978 8672022#0 8672022#1 8672022#3 37276372#0 33805058#0 306387100 -306387100 -33805058#1 24231208#0 206149607#0 51348105#0 51348105#1 950274727#0 135788128#1 33814452#0 33814452#1 33814452#2 33814452#4 33814452#5 349603488#0 349603488#1 4391050#0 4391050#2 349603490#0 620340717#0 -620340716 -620340715 -154743411#2 -620340714#2 -180723491#1 -180723489#2 -180723490 -620340712#1 -28889303#0 -620340711#2 -620340709#2 -620340705 -147549213 -37705430#2 -36590980#2 8759465#0 8759465#3 -9207805#2 9207805#0"/>
   <vehicle id="vehicle-43" type="passenger" color="Yellow" depart="0.43" route="trip-43"/>

   <route id="trip-44" color="Magenta" edges="-10212091#2 10212091#2 10212091#3 20187845#0 20187845#2 20187845#4 35029564#0 123355479#0 123355479#1 123355479#3 154502563 37637984 -173282740 150031197#6 150031197#8 8196620#0 8196620#1 37390741#0 37390741#3 32021100#0 32021100#1 32021100#3 218930183#0 -218930183#3 -219018760#1 -219098062#1 -32037433 -27431134 -8096208#1 8096208#0 27431134"/>
   <vehicle id="vehicle-44" type="passenger" color="Yellow" depart="0.44" route="trip-44"/>

   <route id="trip-45" color="Magenta" edges="123355479#0 123355479#1 123355479#3 154502563 37637984 -173282740 150031197#6 150031197#8 8196620#0 8196620#1 37390741#0 37390741#3 32021100#0 32021100#1 32021100#3 218930183#0 218930181 218895701 800616215#0 475663109#0 -149583694#2 -60966951 -27431130 -32038056#6 -28198821#8 -28198821#5 -28198821#4 130165205#0 130165205#2 130165207#0 130165207#3 -130165209#1 -241660955#31 -241660955#25 -241660955#22 -241660955#21 -241660955#18 -241660955#15 -241660955#14 -241660955#11 -241660955#8 -241660955#7 -241660955#6 -4999334"/>
   <vehicle id="vehicle-45" type="passenger" color="Yellow" depart="0.45" route="trip-45"/>

   <route id="trip-46" color="Magenta" edges="85470309#2 -8225109#3 -8225109#2 4401573 145261451 -8225101 -154755102#3 -154755102#1 -154755102#0 -930736465 -930736464 -835792564 -930736468 -930736467 -186463490 -55940134#2 150031203#0 186463491#0 145474196#1 150039002#0 150039002#2 313981596 313981600#0 313981600#3 31691655 154743409#0 154743409#1 151057652#0"/>
   <vehicle id="vehicle-46" type="passenger" color="Yellow" depart="0.46" route="trip-46"/>

   <route id="trip-47" color="Magenta" edges="150031245#0 4146205#0 255094956#0 824267465 255094955#0 255094955#2 2936806#0 113160347#0 113160347#2 255104326#0 272288776#0 36590984#0 36590984#1 36590984#4 36590984#5 60342000#0 4071484#0 4071484#2 54609701 249483430 27404839#0 27404839#1 583283169 583283195 29319045 583283189 27115123#0 27115123#1 27115123#3 27115123#5 583283167#0 -28198821#8 -28198821#5 -28198821#4 130165205#0 130165205#2 28523856#0 32038441#0 -28198797#1 4146755#0 4146756#0 37191915#0"/>
   <vehicle id="vehicle-47" type="passenger" color="Yellow" depart="0.47" route="trip-47"/>

   <route id="trip-48" color="Magenta" edges="32007885#2 32008097#0 479545489#0 479545489#1 169455026 187070212#0 37873571#0 37873571#1 37873571#2 187070213#0 402179132 37873574 175589820 315921077#0 315921077#1 154755110#0 86415848 175589819#0 175589819#1 175589819#2 154333001#1 169453888#0 145345137#0 1065802292 667410647 150039007#0 150039007#1 150039007#2 667410644#0 9823971#0 9823971#1 9823971#2 9823971#3 857811041#0 51081171#0 51081171#1 51081171#2 906649715 751168040#0 751168040#1 5667174#0 5667174#2 37347656 219018758#0 32011636#0 51857159 219098056 32064260#0 32064260#5 32064261 541566703#0 -32324543#2 -908924988#2 -149583694#2 -60966951 -27431130 -32038056#6 -28198821#8 -28198821#5 -28198821#4 130165205#0 130165205#2 130165207#0 130165207#3 -130165209#1 5015539#0 5015540#0"/>
   <vehicle id="vehicle-48" type="passenger" color="Yellow" depart="0.48" route="trip-48"/>

   <route id="trip-49" color="Magenta" edges="37744760 -37744760 25326177 154502572#1 154502572#2 154502572#3 154502572#4 154502572#5 20187845#0 20187845#2 -154507101 -8196629#0 -667410671#2 38574426#0 38574426#2 38574426#3 94097290#0 115106778#2 154755116#0 154755116#2 667410678#0 51081171#0 51081171#1 51081171#2 906649715 751168040#0 751168040#1 5667174#0 5667174#2 37347656 219018758#0 32011636#0 51857159 219098056 32064260#0 32064260#5 32064261 541566703#0 541566702#0 28523795#0 4004115#0 36590986#1 751868780#0 28542897#1 135556213 322456247 322456251#0 27404830#0"/>
   <vehicle id="vehicle-49" type="passenger" color="Yellow" depart="0.49" route="trip-49"/>

   <route id="trip-50" color="Magenta" edges="5005001#0 4999332#3 4999332#5 4999332#7 4999332#8 41910184#0 41910184#1 241660955#19 241660955#22 241660955#23 241660955#27 130165209#1 130165208#0 130165208#1 37331979 28523862#0 28198821#0 28198821#5 28198821#6 32038056#0 27431130 60966951 149583694#0 908924988#0 32324543#0 -541566703#2 -32064261 -32064260#8 -32064260#3 -219098056 219098057#0 206080341#0 206080341#3 -37347656 27404213#0 118041104#0 26704778#1 26704778#8 115106778#0 115106778#2 115106778#3 26784170#0 25150041#0 25150041#1 25150041#2 10212092#0 -20185105 24693845#0 24693845#1 154502572#5 -10212091#3 -10212091#2"/>
   <vehicle id="vehicle-50" type="passenger" color="Yellow" depart="0.5" route="trip-50"/>

   <route id="trip-51" color="Magenta" edges="41910184#0 41910184#1 241660955#19 241660955#22 241660955#23 241660955#27 130165209#1 130165208#0 130165208#1 37331979 28523862#0 28198821#0 28198821#5 28198821#6 32038056#0 27431130 60966951 149583694#0 908924988#0 32324543#0 -541566703#2 -32064261 -32064260#8 -32064260#3 -219098056 219098057#0 206080341#0 206080341#3 -37347656 27404213#0 118041104#0 26704778#1 26704778#8 115106778#0 115106778#2 115106778#3 26784170#0 25150041#0 25150041#1 25150041#2 10212092#0 -20185105 24693845#0 24693834#0 24693834#1 23395143 -543531545#3"/>
   <vehicle id="vehicle-51" type="passenger" color="Yellow" depart="0.51" route="trip-51"/>

   <route id="trip-52" color="Magenta" edges="37331983#0 37331983#1 23401189 37390741#0 37390741#3 32021100#0 32021100#1 32021100#3 218930183#0 -218930183#3 -219018760#1 -219098062#1 -32037433 -27431134 -8096208#1 8096208#0"/>
   <vehicle id="vehicle-52" type="passenger" color="Yellow" depart="0.52" route="trip-52"/>
