<?xml version="1.0" encoding="UTF-8"?>

<!-- generated on 2022-10-10 16:34:22 by Eclipse SUMO netconvert Version 1.14.1
<configuration xmlns:xsi="http://www.w3.org/2001/XMLSchema-instance" xsi:noNamespaceSchemaLocation="http://sumo.dlr.de/xsd/netconvertConfiguration.xsd">

    <input>
        <sumo-net-file value="colognev1900.net.xml"/>
    </input>

    <output>
        <plain-output-prefix value="colognev1900"/>
    </output>

    <processing>
        <geometry.min-radius.fix.railways value="false"/>
        <geometry.max-grade.fix value="false"/>
        <offset.disable-normalization value="true"/>
        <lefthand value="false"/>
    </processing>

    <junctions>
        <no-internal-links value="true"/>
        <no-turnarounds value="true"/>
        <junctions.corner-detail value="5"/>
        <junctions.limit-turn-speed value="5.5"/>
        <rectangular-lane-cut value="false"/>
    </junctions>

    <pedestrian>
        <walkingareas value="false"/>
    </pedestrian>

</configuration>
-->

<nodes version="1.9" xmlns:xsi="http://www.w3.org/2001/XMLSchema-instance" xsi:noNamespaceSchemaLocation="http://sumo.dlr.de/xsd/nodes_file.xsd">
    <location netOffset="-352695.66,-5642422.97" convBoundary="0.00,0.00,4988.25,4346.21" origBoundary="6.898513,50.901288,6.974704,50.954008" projParameter="+proj=utm +zone=32 +ellps=WGS84 +datum=WGS84 +units=m +no_defs"/>

    <node id="10000373472" x="3275.77" y="2267.29" type="priority"/>
    <node id="10000373473" x="3259.41" y="2268.41" type="priority"/>
    <node id="10000438484" x="2870.77" y="2472.14" type="priority"/>
    <node id="10000438485" x="2899.93" y="2486.24" type="priority"/>
    <node id="10000438487" x="2871.50" y="2485.54" type="right_before_left"/>
    <node id="10000438488" x="2855.44" y="2486.75" type="right_before_left"/>
    <node id="10000438489" x="2854.58" y="2469.96" type="priority"/>
    <node id="10000438490" x="2855.91" y="2496.34" type="priority"/>
    <node id="10003073081" x="2103.79" y="1470.06" type="priority"/>
    <node id="10003073083" x="2114.90" y="1486.59" type="priority"/>
    <node id="10003087626" x="1473.78" y="1499.53" type="priority"/>
    <node id="10003087643" x="1642.31" y="1215.11" type="priority"/>
    <node id="10003087645" x="1536.62" y="1093.46" type="priority"/>
    <node id="10003087646" x="1545.38" y="1061.52" type="priority"/>
    <node id="10004867902" x="1231.85" y="2229.34" type="right_before_left"/>
    <node id="10004867903" x="1231.32" y="2209.02" type="priority"/>
    <node id="10004867904" x="1133.00" y="2053.08" type="priority"/>
    <node id="10004909664" x="1318.27" y="2627.65" type="priority"/>
    <node id="10004909665" x="1332.51" y="2623.88" type="right_before_left"/>
    <node id="10004909666" x="1359.67" y="2673.07" type="priority"/>
    <node id="10004909673" x="1327.40" y="2677.93" type="priority"/>
    <node id="1003841467" x="2026.86" y="2708.35" type="priority"/>
    <node id="1003841472" x="2025.60" y="2672.43" type="right_before_left"/>
    <node id="1003841477" x="2049.21" y="2707.71" type="priority"/>
    <node id="1003841492" x="2047.97" y="2671.72" type="priority"/>
    <node id="1004021481" x="3703.39" y="2065.09" type="priority"/>
    <node id="1029560908" x="3558.63" y="1787.79" type="priority"/>
    <node id="1029567367" x="3642.32" y="1960.17" type="priority"/>
    <node id="1029572448" x="3640.99" y="1993.64" type="priority"/>
    <node id="1029572473" x="3666.34" y="1970.25" type="priority"/>
    <node id="1039560912" x="3994.53" y="2067.50" type="priority"/>
    <node id="1051457183" x="4050.41" y="3064.92" type="dead_end"/>
    <node id="10853912" x="2189.79" y="2482.83" type="right_before_left"/>
    <node id="10853913" x="2381.22" y="2472.66" type="right_before_left"/>
    <node id="10854208" x="2194.21" y="2560.04" type="priority"/>
    <node id="10854209" x="2225.04" y="2589.32" type="priority"/>
    <node id="10924332" x="2395.55" y="2571.64" type="priority"/>
    <node id="10929961" x="2331.46" y="2954.83" type="traffic_light" tl="GS_10929961"/>
    <node id="1093872774" x="3251.80" y="1685.83" type="priority"/>
    <node id="1093872785" x="3100.03" y="1738.19" type="right_before_left"/>
    <node id="1093872797" x="2716.46" y="1563.90" type="priority"/>
    <node id="1093872824" x="2735.25" y="1547.78" type="right_before_left"/>
    <node id="1093872838" x="2766.42" y="1600.51" type="priority"/>
    <node id="1093872844" x="2742.69" y="1536.23" type="priority"/>
    <node id="1093872872" x="2678.35" y="1502.55" type="priority"/>
    <node id="1093872874" x="2776.99" y="1574.82" type="right_before_left"/>
    <node id="1093874892" x="2757.52" y="1491.26" type="traffic_light" tl="GS_1093874892"/>
    <node id="10989051" x="2515.38" y="2525.01" type="priority"/>
    <node id="10989096" x="2386.92" y="2387.07" type="right_before_left"/>
    <node id="10990037" x="2451.40" y="2469.51" type="priority"/>
    <node id="11133495" x="3104.10" y="1371.76" type="priority"/>
    <node id="1131131356" x="2816.34" y="1513.31" type="priority"/>
    <node id="1132174817" x="677.96" y="1179.15" type="priority"/>
    <node id="1132174827" x="616.86" y="1227.02" type="priority"/>
    <node id="1133996315" x="890.18" y="1806.20" type="priority"/>
    <node id="1133996353" x="684.92" y="1738.93" type="priority"/>
    <node id="1133996418" x="728.57" y="1680.24" type="priority"/>
    <node id="1133996438" x="706.25" y="1745.38" type="right_before_left"/>
    <node id="1133996447" x="680.96" y="1757.56" type="priority"/>
    <node id="1141855590" x="3826.86" y="2365.67" type="priority"/>
    <node id="1141881734" x="3607.38" y="2568.49" type="priority"/>
    <node id="1141881744" x="3580.26" y="2588.40" type="priority"/>
    <node id="1141881757" x="3580.35" y="2575.47" type="right_before_left"/>
    <node id="1141881760" x="3580.59" y="2568.55" type="priority"/>
    <node id="1142037868" x="2717.91" y="2286.17" type="rail_crossing"/>
    <node id="1142200350" x="2977.02" y="2291.77" type="priority"/>
    <node id="1142200355" x="2900.79" y="2282.34" type="priority"/>
    <node id="1145231282" x="2882.26" y="2209.09" type="priority"/>
    <node id="1145231286" x="2882.49" y="2232.25" type="right_before_left"/>
    <node id="1145231287" x="2796.70" y="2209.90" type="priority"/>
    <node id="1151285307" x="1262.55" y="1772.87" type="priority"/>
    <node id="1151285369" x="1332.54" y="1762.77" type="right_before_left"/>
    <node id="1151285390" x="1251.11" y="1742.60" type="priority"/>
    <node id="1158586821" x="3566.24" y="898.67" type="priority"/>
    <node id="1158587548" x="3697.24" y="736.81" type="dead_end"/>
    <node id="1158665492" x="3747.08" y="1111.43" type="priority"/>
    <node id="1158702876" x="3016.37" y="1189.27" type="priority"/>
    <node id="1158828070" x="1488.09" y="1902.36" type="priority"/>
    <node id="1158927183" x="2649.08" y="1378.01" type="priority"/>
    <node id="1174725046" x="1976.78" y="1025.10" type="priority"/>
    <node id="1177523742" x="2046.92" y="825.45" type="priority"/>
    <node id="1177585827" x="1965.44" y="1017.28" type="right_before_left"/>
    <node id="1177585871" x="1966.06" y="1000.33" type="right_before_left"/>
    <node id="1177717394" x="1851.43" y="1202.48" type="priority"/>
    <node id="1214320190" x="2166.01" y="1230.08" type="priority"/>
    <node id="1214320200" x="2132.41" y="1449.64" type="priority"/>
    <node id="1214320250" x="2104.87" y="1437.06" type="priority"/>
    <node id="1214320261" x="2182.19" y="1199.15" type="priority"/>
    <node id="1237756" x="2281.23" y="1729.71" type="priority"/>
    <node id="1237757" x="2182.75" y="1624.92" type="priority"/>
    <node id="1238714" x="3128.26" y="2864.40" type="priority"/>
    <node id="1238715" x="3128.72" y="2835.91" type="traffic_light" tl="GS_1238715"/>
    <node id="1238718" x="3072.05" y="2851.65" type="priority"/>
    <node id="1238722" x="2997.50" y="2844.09" type="priority"/>
    <node id="1238725" x="2874.61" y="2758.66" type="traffic_light" tl="GS_1238725"/>
    <node id="1238731" x="2635.33" y="2796.43" type="priority"/>
    <node id="1238747" x="3683.71" y="2910.88" type="priority"/>
    <node id="1253841594" x="3128.74" y="2850.85" type="priority"/>
    <node id="1265004320" x="3017.15" y="2569.07" type="priority"/>
    <node id="1265004329" x="3010.37" y="2568.55" type="right_before_left"/>
    <node id="1265004335" x="3016.47" y="2544.84" type="priority"/>
    <node id="1265004353" x="3002.77" y="2531.56" type="right_before_left"/>
    <node id="1265004359" x="2995.17" y="2508.62" type="priority"/>
    <node id="1265004382" x="2988.98" y="2567.61" type="priority"/>
    <node id="1273342286" x="2615.72" y="3011.91" type="priority"/>
    <node id="1273342310" x="2606.63" y="3085.14" type="priority"/>
    <node id="1273342374" x="2626.57" y="3039.66" type="dead_end"/>
    <node id="1276827896" x="3548.80" y="2216.51" type="priority"/>
    <node id="1293263928" x="2485.36" y="1286.64" type="dead_end"/>
    <node id="1293263935" x="2523.56" y="1178.57" type="priority"/>
    <node id="1293263977" x="2482.71" y="1282.83" type="dead_end"/>
    <node id="1293264013" x="2594.08" y="788.61" type="dead_end"/>
    <node id="1293264092" x="2647.41" y="788.70" type="dead_end"/>
    <node id="1293264097" x="2427.73" y="1336.11" type="dead_end"/>
    <node id="1293264125" x="2474.09" y="1298.47" type="priority"/>
    <node id="1293264148" x="2468.24" y="1297.41" type="dead_end"/>
    <node id="1293264155" x="2255.43" y="1476.93" type="dead_end"/>
    <node id="1293264157" x="2431.02" y="1339.47" type="priority"/>
    <node id="1293270727" x="1939.34" y="2575.06" type="priority"/>
    <node id="1293270733" x="1948.24" y="2300.35" type="priority"/>
    <node id="1293270743" x="1954.85" y="2441.99" type="dead_end">
        <param key="buffer_stop" value="true"/>
    </node>
    <node id="1293270747" x="1939.94" y="2364.29" type="priority"/>
    <node id="1293270749" x="1952.61" y="2565.59" type="priority"/>
    <node id="1293270762" x="1944.57" y="2357.54" type="priority"/>
    <node id="1293270764" x="1935.18" y="2310.18" type="priority"/>
    <node id="1293272513" x="1947.09" y="2525.70" type="priority"/>
    <node id="1293272515" x="1960.42" y="2667.96" type="priority"/>
    <node id="1293272516" x="1957.81" y="2610.26" type="priority"/>
    <node id="1293282023" x="2009.48" y="2823.49" type="priority"/>
    <node id="1293282026" x="2000.13" y="2805.08" type="priority"/>
    <node id="12950731" x="2200.48" y="2701.77" type="right_before_left"/>
    <node id="12952289" x="2219.56" y="2887.43" type="traffic_light" tl="joinedS_0" controlledInner="-206782857#0 206782857#0"/>
    <node id="1295296014" x="1962.18" y="2681.76" type="rail_signal"/>
    <node id="1295296023" x="1945.13" y="2405.64" type="priority"/>
    <node id="1295296026" x="1941.49" y="2456.67" type="priority"/>
    <node id="1295296031" x="1942.55" y="2524.28" type="priority"/>
    <node id="1295296034" x="1966.35" y="2695.44" type="priority"/>
    <node id="1295296043" x="1968.24" y="2660.38" type="priority"/>
    <node id="1295296046" x="2288.55" y="3376.42" type="dead_end"/>
    <node id="1295296055" x="1941.87" y="2482.72" type="priority"/>
    <node id="1299345522" x="3331.92" y="2729.76" type="priority"/>
    <node id="1305956232" x="1904.51" y="1065.54" type="priority"/>
    <node id="1305956234" x="1917.26" y="1115.31" type="priority"/>
    <node id="1307661022" x="3812.02" y="2180.15" type="priority"/>
    <node id="1307661036" x="3794.35" y="2179.00" type="priority"/>
    <node id="1307661039" x="3850.63" y="2182.53" type="traffic_light" tl="joinedS_1" controlledInner="245991949#0 32111896"/>
    <node id="1307690722" x="3918.46" y="2186.16" type="priority"/>
    <node id="1307822193" x="3979.71" y="2194.29" type="priority"/>
    <node id="1314147233" x="1763.68" y="1596.66" type="priority"/>
    <node id="1325227229" x="3697.91" y="2187.06" type="priority"/>
    <node id="1340936407" x="3604.42" y="3805.68" type="dead_end"/>
    <node id="1340947599" x="3844.45" y="2922.60" type="priority"/>
    <node id="1341075012" x="3802.24" y="2919.18" type="priority"/>
    <node id="1342070215" x="3333.73" y="1683.69" type="priority"/>
    <node id="1342988629" x="875.05" y="2237.89" type="priority"/>
    <node id="1350070534" x="613.62" y="1611.99" type="priority"/>
    <node id="1350070545" x="598.45" y="1667.53" type="priority"/>
    <node id="1350142732" x="1592.59" y="897.17" type="priority"/>
    <node id="1351928419" x="531.36" y="1491.30" type="priority"/>
    <node id="1351928452" x="498.16" y="1544.16" type="priority"/>
    <node id="1352541" x="2596.23" y="2169.16" type="priority"/>
    <node id="1352542" x="2631.81" y="1998.10" type="priority"/>
    <node id="1352544" x="2767.26" y="2205.44" type="priority"/>
    <node id="1352548" x="2707.53" y="2011.75" type="priority"/>
    <node id="1352550" x="2719.16" y="1965.04" type="priority"/>
    <node id="1352552" x="2742.16" y="1882.49" type="priority"/>
    <node id="1352555" x="2808.33" y="1932.80" type="right_before_left"/>
    <node id="1352559" x="2808.25" y="1754.35" type="priority"/>
    <node id="1352560" x="2772.08" y="1680.70" type="right_before_left"/>
    <node id="1352562" x="2825.92" y="1786.01" type="priority"/>
    <node id="1352565" x="2892.08" y="1835.61" type="right_before_left"/>
    <node id="1352566" x="2933.87" y="1909.18" type="right_before_left"/>
    <node id="1352568" x="2934.28" y="1748.64" type="right_before_left"/>
    <node id="1352576" x="2991.01" y="1779.00" type="priority"/>
    <node id="1352579" x="3073.07" y="1686.17" type="priority"/>
    <node id="1352581" x="3086.53" y="1714.11" type="priority"/>
    <node id="1352584" x="3074.27" y="1929.16" type="right_before_left"/>
    <node id="1352585" x="3065.15" y="1856.71" type="right_before_left"/>
    <node id="1352586" x="2990.35" y="1916.21" type="right_before_left"/>
    <node id="1352591" x="2943.66" y="2017.03" type="right_before_left"/>
    <node id="1352592" x="2920.38" y="1970.03" type="priority"/>
    <node id="1352594" x="3082.09" y="2029.97" type="right_before_left"/>
    <node id="1352598" x="3185.38" y="2163.07" type="right_before_left"/>
    <node id="1352599" x="3098.06" y="2174.08" type="right_before_left"/>
    <node id="1352601" x="3091.19" y="2127.89" type="right_before_left"/>
    <node id="1352602" x="3008.82" y="2187.24" type="priority"/>
    <node id="1352604" x="2912.17" y="1669.50" type="right_before_left"/>
    <node id="1352605" x="2606.40" y="1770.33" type="priority"/>
    <node id="1352607" x="2673.78" y="1825.49" type="priority"/>
    <node id="1352608" x="2910.01" y="2209.43" type="priority"/>
    <node id="1352610" x="2660.29" y="2069.20" type="priority"/>
    <node id="1352612" x="2648.37" y="2176.76" type="priority"/>
    <node id="1352613" x="2822.79" y="2093.77" type="priority"/>
    <node id="1352615" x="2616.90" y="2063.48" type="priority"/>
    <node id="1352617" x="2554.83" y="1984.06" type="priority"/>
    <node id="1352623" x="3171.03" y="1923.65" type="priority"/>
    <node id="1352624" x="3180.12" y="1917.79" type="priority"/>
    <node id="1352626" x="3162.33" y="1915.72" type="priority"/>
    <node id="1352628" x="3132.01" y="1798.87" type="right_before_left"/>
    <node id="1352630" x="1967.38" y="2112.49" type="priority"/>
    <node id="1352632" x="2170.16" y="2097.84" type="priority"/>
    <node id="1354850" x="2458.31" y="1934.89" type="priority"/>
    <node id="1354852" x="2460.85" y="1915.48" type="right_before_left"/>
    <node id="1354858" x="3205.42" y="2222.36" type="priority"/>
    <node id="1354864" x="2738.18" y="2294.20" type="priority"/>
    <node id="1354881" x="2706.15" y="1613.50" type="priority"/>
    <node id="1354883" x="3015.63" y="2123.79" type="priority"/>
    <node id="1354885" x="2966.42" y="2120.13" type="priority"/>
    <node id="1356376763" x="825.49" y="1880.01" type="priority"/>
    <node id="1356376842" x="868.06" y="2043.55" type="priority"/>
    <node id="1358238867" x="481.41" y="1294.94" type="priority"/>
    <node id="1358238878" x="461.47" y="1341.00" type="priority"/>
    <node id="1363623463" x="3890.38" y="721.26" type="dead_end"/>
    <node id="1363623465" x="3868.99" y="719.16" type="dead_end"/>
    <node id="1363742989" x="3606.56" y="1994.00" type="priority"/>
    <node id="1363742991" x="3652.00" y="1993.62" type="priority"/>
    <node id="1363743084" x="3586.81" y="2015.68" type="priority"/>
    <node id="1363743105" x="3607.04" y="2018.85" type="right_before_left"/>
    <node id="1363743108" x="3615.36" y="2020.14" type="priority"/>
    <node id="1363743130" x="3651.48" y="2027.73" type="priority"/>
    <node id="1363743185" x="3617.59" y="2045.71" type="priority"/>
    <node id="1363743262" x="3636.96" y="2072.80" type="priority"/>
    <node id="1363743264" x="3601.94" y="2077.77" type="priority"/>
    <node id="1366213151" x="748.83" y="920.34" type="priority"/>
    <node id="1366213195" x="690.51" y="954.38" type="priority"/>
    <node id="1366213209" x="738.77" y="957.20" type="priority"/>
    <node id="137081856" x="1961.38" y="2633.07" type="priority"/>
    <node id="137083245" x="2018.03" y="2796.81" type="dead_end"/>
    <node id="1372689199" x="3174.05" y="2323.87" type="priority"/>
    <node id="1376684099" x="352.79" y="2459.87" type="dead_end"/>
    <node id="1382824163" x="3884.23" y="946.69" type="priority"/>
    <node id="1384164394" x="3882.64" y="1179.75" type="priority"/>
    <node id="1388701290" x="3740.57" y="1213.90" type="priority"/>
    <node id="1389785218" x="1164.76" y="2102.25" type="priority"/>
    <node id="1389785219" x="1169.18" y="1999.66" type="priority"/>
    <node id="1389798787" x="1072.80" y="2086.70" type="priority"/>
    <node id="1392828896" x="912.64" y="1124.22" type="priority"/>
    <node id="1394847118" x="901.17" y="1250.53" type="priority"/>
    <node id="1394847124" x="970.98" y="1300.48" type="priority"/>
    <node id="1394847127" x="928.51" y="1137.37" type="priority"/>
    <node id="1403601645" x="3921.20" y="1154.69" type="priority"/>
    <node id="1406195" x="3494.00" y="3201.46" type="dead_end"/>
    <node id="1406198" x="3472.48" y="3073.75" type="priority"/>
    <node id="1406200" x="3477.11" y="2842.26" type="priority"/>
    <node id="1406203" x="3489.52" y="3072.93" type="priority"/>
    <node id="1420048725" x="3908.46" y="1379.77" type="priority"/>
    <node id="1420048726" x="3898.02" y="1441.61" type="priority"/>
    <node id="1426982341" x="3566.51" y="2529.70" type="priority"/>
    <node id="1431777642" x="2642.83" y="2305.21" type="priority"/>
    <node id="1431777680" x="2576.83" y="2322.05" type="priority"/>
    <node id="1431777705" x="2568.54" y="2335.14" type="priority"/>
    <node id="1431777747" x="2496.09" y="2364.42" type="priority"/>
    <node id="1431777755" x="2638.85" y="2396.16" type="priority"/>
    <node id="1431795694" x="2503.77" y="2341.43" type="priority"/>
    <node id="1431795696" x="2504.47" y="2349.05" type="priority"/>
    <node id="1432014045" x="2687.65" y="2342.54" type="right_before_left"/>
    <node id="1432014046" x="2684.60" y="2342.92" type="priority"/>
    <node id="1432014050" x="2733.82" y="2347.85" type="priority"/>
    <node id="143456909" x="4988.25" y="1780.53" type="dead_end"/>
    <node id="1438375577" x="2727.70" y="2402.33" type="priority"/>
    <node id="1439757451" x="1230.70" y="1459.88" type="priority"/>
    <node id="1439757458" x="1187.54" y="1474.01" type="priority"/>
    <node id="1439757479" x="1114.44" y="1522.14" type="priority"/>
    <node id="1440415928" x="2924.88" y="2419.14" type="priority"/>
    <node id="1440415929" x="2917.57" y="2419.36" type="priority"/>
    <node id="1440422822" x="2799.28" y="2491.30" type="priority"/>
    <node id="1440422823" x="2838.87" y="2485.75" type="priority"/>
    <node id="1440422834" x="2799.42" y="2497.51" type="priority"/>
    <node id="1440430543" x="2782.18" y="2469.30" type="priority"/>
    <node id="1440430569" x="2783.29" y="2498.06" type="priority"/>
    <node id="1442229479" x="2729.02" y="2460.03" type="priority"/>
    <node id="1442229485" x="2763.62" y="2459.50" type="priority"/>
    <node id="14593395" x="2727.80" y="2396.90" type="priority"/>
    <node id="14593401" x="2844.16" y="2395.27" type="priority"/>
    <node id="14603878" x="2603.96" y="2475.66" type="priority"/>
    <node id="14607100" x="2634.86" y="2655.76" type="priority"/>
    <node id="1470896842" x="2764.80" y="2337.05" type="priority"/>
    <node id="1470896856" x="2759.15" y="2341.41" type="priority"/>
    <node id="1496377178" x="3491.53" y="2040.84" type="priority"/>
    <node id="1496377179" x="3499.11" y="2044.23" type="priority"/>
    <node id="1496387766" x="3507.76" y="2172.66" type="priority"/>
    <node id="1497203255" x="3199.23" y="1926.84" type="priority"/>
    <node id="1497203274" x="3221.29" y="1939.97" type="priority"/>
    <node id="1497203293" x="3192.93" y="1950.01" type="priority"/>
    <node id="1497203314" x="3209.31" y="1955.53" type="priority"/>
    <node id="1497203513" x="3183.44" y="2031.03" type="priority"/>
    <node id="1497203517" x="3211.88" y="2033.83" type="priority"/>
    <node id="1497203534" x="3179.96" y="2050.57" type="priority"/>
    <node id="1497203535" x="3210.96" y="2056.16" type="priority"/>
    <node id="1501163097" x="3755.30" y="2910.74" type="priority"/>
    <node id="15341603" x="1972.55" y="2566.58" type="priority">
        <param key="buffer_stop" value="true"/>
    </node>
    <node id="1541261139" x="3046.15" y="2580.32" type="priority"/>
    <node id="1541261286" x="3052.56" y="2606.13" type="priority"/>
    <node id="1545312558" x="3852.29" y="2919.51" type="priority"/>
    <node id="1545758441" x="4000.39" y="3065.31" type="priority"/>
    <node id="1546021673" x="4003.61" y="3073.39" type="priority"/>
    <node id="1578267870" x="2858.33" y="2525.15" type="priority"/>
    <node id="1578267881" x="2784.56" y="2534.34" type="priority"/>
    <node id="1581376066" x="1767.41" y="1162.99" type="priority"/>
    <node id="1581376220" x="1769.58" y="1270.08" type="priority"/>
    <node id="1581477827" x="1844.83" y="828.20" type="dead_end"/>
    <node id="1581516356" x="1906.29" y="937.37" type="priority"/>
    <node id="1581521498" x="1708.39" y="961.98" type="priority"/>
    <node id="1584118502" x="2166.65" y="2015.93" type="priority"/>
    <node id="1584980466" x="3326.93" y="2219.44" type="priority"/>
    <node id="1586986062" x="3034.64" y="2146.17" type="priority"/>
    <node id="1586986076" x="3011.67" y="2160.63" type="right_before_left"/>
    <node id="1586986092" x="3059.39" y="2172.26" type="priority"/>
    <node id="1586986102" x="3060.00" y="2176.76" type="priority"/>
    <node id="1586986114" x="2993.33" y="2191.83" type="priority"/>
    <node id="1587055958" x="2882.36" y="2246.25" type="priority"/>
    <node id="1587600297" x="1308.60" y="2406.73" type="priority"/>
    <node id="1587632891" x="3553.75" y="1753.15" type="priority"/>
    <node id="1587632897" x="3506.64" y="1768.33" type="priority"/>
    <node id="1587632929" x="3520.95" y="1839.62" type="priority"/>
    <node id="1587632938" x="3569.77" y="1838.95" type="priority"/>
    <node id="1589663044" x="2556.93" y="1975.14" type="priority"/>
    <node id="1593578216" x="692.36" y="2972.57" type="priority"/>
    <node id="1593578219" x="670.47" y="2984.98" type="right_before_left"/>
    <node id="1593578222" x="660.24" y="2990.44" type="priority"/>
    <node id="1593578228" x="701.10" y="3003.04" type="priority"/>
    <node id="1603485490" x="3452.59" y="2215.93" type="priority"/>
    <node id="1603485506" x="3373.42" y="2217.74" type="priority"/>
    <node id="1603485522" x="3452.38" y="2357.01" type="priority"/>
    <node id="160677687" x="3802.72" y="2913.15" type="priority"/>
    <node id="1607569356" x="2453.01" y="2797.76" type="priority"/>
    <node id="1607569370" x="2444.69" y="2823.81" type="priority"/>
    <node id="1607569380" x="2470.17" y="2841.24" type="priority"/>
    <node id="1611553726" x="1806.15" y="1219.67" type="priority"/>
    <node id="1611553728" x="1784.65" y="1225.58" type="priority"/>
    <node id="1611553749" x="1848.53" y="1235.99" type="priority"/>
    <node id="1613276021" x="3629.48" y="2469.54" type="right_before_left"/>
    <node id="161404815" x="3991.99" y="2428.83" type="priority"/>
    <node id="1616683209" x="2694.04" y="2443.31" type="priority"/>
    <node id="1616683220" x="2667.96" y="2455.21" type="priority"/>
    <node id="161724650" x="3953.09" y="2919.83" type="priority"/>
    <node id="161724687" x="3963.38" y="2755.25" type="priority"/>
    <node id="1625356159" x="2522.28" y="1191.89" type="priority"/>
    <node id="1625402946" x="1941.90" y="2185.56" type="rail_signal"/>
    <node id="1625402952" x="1945.93" y="2185.53" type="rail_signal"/>
    <node id="1625402956" x="1937.43" y="2185.57" type="rail_signal"/>
    <node id="1625402959" x="1904.24" y="2269.32" type="priority"/>
    <node id="1625403091" x="2063.81" y="2749.57" type="priority"/>
    <node id="1625430695" x="2030.90" y="1709.61" type="rail_signal"/>
    <node id="1625430697" x="2034.63" y="1711.41" type="rail_signal"/>
    <node id="1625430795" x="2200.02" y="3228.37" type="rail_signal"/>
    <node id="1625430826" x="2265.36" y="3338.85" type="rail_signal"/>
    <node id="1625442914" x="2447.98" y="3592.92" type="dead_end"/>
    <node id="1625457493" x="2771.93" y="4027.54" type="dead_end"/>
    <node id="1629676281" x="3746.83" y="3241.40" type="rail_signal"/>
    <node id="1629678641" x="3391.04" y="879.75" type="priority"/>
    <node id="1629678643" x="3417.28" y="902.51" type="traffic_light" tl="joinedS_4" controlledInner="150031250#0"/>
    <node id="1629678714" x="2323.08" y="1350.89" type="priority"/>
    <node id="1629678757" x="2539.36" y="1975.45" type="priority"/>
    <node id="1629692238" x="3751.31" y="3246.13" type="dead_end"/>
    <node id="1629836066" x="4153.49" y="2872.94" type="dead_end"/>
    <node id="1629836113" x="4093.12" y="2897.18" type="dead_end"/>
    <node id="1629836134" x="4080.11" y="2910.64" type="dead_end"/>
    <node id="1629877489" x="4134.81" y="2872.21" type="dead_end"/>
    <node id="1629877505" x="4080.37" y="2892.17" type="dead_end"/>
    <node id="1629877510" x="4027.44" y="2906.40" type="priority"/>
    <node id="1629877519" x="4024.48" y="2908.39" type="rail_signal"/>
    <node id="1629877533" x="4027.86" y="2936.09" type="priority"/>
    <node id="1629889527" x="4090.95" y="2875.28" type="dead_end"/>
    <node id="1629908073" x="4128.10" y="2856.35" type="dead_end"/>
    <node id="1629908095" x="4042.34" y="2871.71" type="dead_end"/>
    <node id="1629908108" x="4048.26" y="2875.17" type="dead_end"/>
    <node id="1629908109" x="4011.01" y="2876.59" type="rail_signal"/>
    <node id="1629908111" x="4047.11" y="2880.30" type="dead_end"/>
    <node id="1629908124" x="3990.94" y="2897.66" type="rail_signal"/>
    <node id="1629908130" x="3971.39" y="2904.40" type="priority"/>
    <node id="1629930795" x="3947.69" y="2923.88" type="rail_signal"/>
    <node id="1629931071" x="3782.27" y="3279.30" type="dead_end"/>
    <node id="1629943134" x="3888.42" y="3176.34" type="dead_end"/>
    <node id="163074231" x="2520.42" y="2251.26" type="priority"/>
    <node id="163074242" x="2576.47" y="2276.55" type="priority"/>
    <node id="163074256" x="2610.40" y="2296.22" type="priority"/>
    <node id="1631250717" x="3085.13" y="2859.00" type="priority"/>
    <node id="1631311629" x="3032.16" y="2885.84" type="priority"/>
    <node id="1631311634" x="2991.71" y="2887.40" type="priority"/>
    <node id="1631311660" x="3019.48" y="2901.62" type="priority"/>
    <node id="1631311668" x="2991.74" y="2905.14" type="priority"/>
    <node id="1631311694" x="3034.88" y="2927.80" type="priority"/>
    <node id="1631311704" x="2995.84" y="2931.80" type="priority"/>
    <node id="1631360044" x="3067.67" y="2968.10" type="priority"/>
    <node id="1631429976" x="3041.42" y="2934.91" type="right_before_left"/>
    <node id="1631429978" x="3079.29" y="2936.88" type="right_before_left"/>
    <node id="1631429982" x="3041.65" y="2946.10" type="right_before_left"/>
    <node id="1631430237" x="3099.12" y="2957.30" type="priority"/>
    <node id="1631603765" x="3037.33" y="3080.84" type="priority"/>
    <node id="1634119634" x="2244.87" y="1314.39" type="priority"/>
    <node id="1634119661" x="2178.38" y="1384.94" type="right_before_left"/>
    <node id="1634119669" x="2172.28" y="1395.19" type="priority"/>
    <node id="1634119673" x="2224.11" y="1424.20" type="right_before_left"/>
    <node id="1638968562" x="2736.95" y="3289.33" type="dead_end"/>
    <node id="1640882438" x="2830.92" y="2747.76" type="priority"/>
    <node id="1641128608" x="2849.82" y="2608.81" type="priority"/>
    <node id="1641128620" x="2839.36" y="2622.88" type="priority"/>
    <node id="1641128633" x="2849.54" y="2629.08" type="right_before_left"/>
    <node id="1641128643" x="2849.58" y="2634.59" type="priority"/>
    <node id="1666174268" x="2485.16" y="1510.85" type="priority"/>
    <node id="1670309356" x="2975.88" y="1664.16" type="right_before_left"/>
    <node id="1670341109" x="3979.57" y="1468.83" type="priority"/>
    <node id="1670341114" x="4020.71" y="1468.57" type="priority"/>
    <node id="1670341203" x="3968.49" y="1531.17" type="priority"/>